*SPEF "ieee 1481-1999"
*DESIGN "twos_complement"
*DATE "14:12:32 Saturday April 26, 2025"
*VENDOR "The OpenROAD Project"
*PROGRAM "OpenROAD"
*VERSION "b16bda7e82721d10566ff7e2b68f1ff0be9f9e38"
*DESIGN_FLOW "NAME_SCOPE LOCAL" "PIN_CAP NONE"
*DIVIDER /
*DELIMITER :
*BUS_DELIMITER []
*T_UNIT 1 NS
*C_UNIT 1 PF
*R_UNIT 1 OHM
*L_UNIT 1 HENRY

*NAME_MAP
*3 in[0]
*4 in[1]
*5 in[2]
*6 in[3]
*7 in[4]
*8 in[5]
*9 in[6]
*10 in[7]
*11 out[0]
*12 out[1]
*13 out[2]
*14 out[3]
*15 out[4]
*16 out[5]
*17 out[6]
*18 out[7]
*19 _00_
*20 _01_
*21 _02_
*22 _03_
*23 _04_
*24 _05_
*25 _06_
*26 _07_
*27 _08_
*28 net1
*29 net10
*30 net11
*31 net12
*32 net13
*33 net14
*34 net15
*35 net16
*36 net2
*37 net3
*38 net4
*39 net5
*40 net6
*41 net7
*42 net8
*43 net9
*44 FILLER_0_0_21
*45 FILLER_0_0_27
*46 FILLER_0_0_29
*47 FILLER_0_0_37
*48 FILLER_0_0_9
*49 FILLER_0_10_20
*50 FILLER_0_10_29
*51 FILLER_0_10_35
*52 FILLER_0_10_43
*53 FILLER_0_10_6
*54 FILLER_0_11_18
*55 FILLER_0_11_30
*56 FILLER_0_11_42
*57 FILLER_0_11_6
*58 FILLER_0_12_13
*59 FILLER_0_12_23
*60 FILLER_0_12_27
*61 FILLER_0_12_35
*62 FILLER_0_12_39
*63 FILLER_0_1_15
*64 FILLER_0_1_23
*65 FILLER_0_1_3
*66 FILLER_0_1_31
*67 FILLER_0_1_38
*68 FILLER_0_1_46
*69 FILLER_0_2_15
*70 FILLER_0_2_27
*71 FILLER_0_2_29
*72 FILLER_0_2_3
*73 FILLER_0_2_37
*74 FILLER_0_2_43
*75 FILLER_0_2_47
*76 FILLER_0_3_18
*77 FILLER_0_3_24
*78 FILLER_0_3_38
*79 FILLER_0_3_6
*80 FILLER_0_4_15
*81 FILLER_0_4_27
*82 FILLER_0_4_29
*83 FILLER_0_4_3
*84 FILLER_0_4_41
*85 FILLER_0_4_47
*86 FILLER_0_5_18
*87 FILLER_0_5_30
*88 FILLER_0_5_38
*89 FILLER_0_5_43
*90 FILLER_0_5_6
*91 FILLER_0_6_14
*92 FILLER_0_6_26
*93 FILLER_0_6_29
*94 FILLER_0_6_3
*95 FILLER_0_6_41
*96 FILLER_0_6_47
*97 FILLER_0_7_15
*98 FILLER_0_7_27
*99 FILLER_0_7_3
*100 FILLER_0_7_35
*101 FILLER_0_7_47
*102 FILLER_0_8_17
*103 FILLER_0_8_25
*104 FILLER_0_8_29
*105 FILLER_0_8_41
*106 FILLER_0_8_6
*107 FILLER_0_9_11
*108 FILLER_0_9_16
*109 FILLER_0_9_28
*110 FILLER_0_9_3
*111 FILLER_0_9_35
*112 FILLER_0_9_47
*113 PHY_EDGE_ROW_0_Left_13
*114 PHY_EDGE_ROW_0_Right_0
*115 PHY_EDGE_ROW_10_Left_23
*116 PHY_EDGE_ROW_10_Right_10
*117 PHY_EDGE_ROW_11_Left_24
*118 PHY_EDGE_ROW_11_Right_11
*119 PHY_EDGE_ROW_12_Left_25
*120 PHY_EDGE_ROW_12_Right_12
*121 PHY_EDGE_ROW_1_Left_14
*122 PHY_EDGE_ROW_1_Right_1
*123 PHY_EDGE_ROW_2_Left_15
*124 PHY_EDGE_ROW_2_Right_2
*125 PHY_EDGE_ROW_3_Left_16
*126 PHY_EDGE_ROW_3_Right_3
*127 PHY_EDGE_ROW_4_Left_17
*128 PHY_EDGE_ROW_4_Right_4
*129 PHY_EDGE_ROW_5_Left_18
*130 PHY_EDGE_ROW_5_Right_5
*131 PHY_EDGE_ROW_6_Left_19
*132 PHY_EDGE_ROW_6_Right_6
*133 PHY_EDGE_ROW_7_Left_20
*134 PHY_EDGE_ROW_7_Right_7
*135 PHY_EDGE_ROW_8_Left_21
*136 PHY_EDGE_ROW_8_Right_8
*137 PHY_EDGE_ROW_9_Left_22
*138 PHY_EDGE_ROW_9_Right_9
*139 TAP_TAPCELL_ROW_0_26
*140 TAP_TAPCELL_ROW_10_31
*141 TAP_TAPCELL_ROW_12_32
*142 TAP_TAPCELL_ROW_2_27
*143 TAP_TAPCELL_ROW_4_28
*144 TAP_TAPCELL_ROW_6_29
*145 TAP_TAPCELL_ROW_8_30
*146 _09_
*147 _10_
*148 _11_
*149 _12_
*150 _13_
*151 _14_
*152 _15_
*153 _16_
*154 _17_
*155 _18_
*156 _19_
*157 _20_
*158 _21_
*159 _22_
*160 _23_
*161 _24_
*162 _25_
*163 input1
*164 input2
*165 input3
*166 input4
*167 input5
*168 input6
*169 input7
*170 input8
*171 output10
*172 output11
*173 output12
*174 output13
*175 output14
*176 output15
*177 output16
*178 output9

*PORTS
in[0] I
in[1] I
in[2] I
in[3] I
in[4] I
in[5] I
in[6] I
in[7] I
out[0] O
out[1] O
out[2] O
out[3] O
out[4] O
out[5] O
out[6] O
out[7] O

*D_NET *3 0.00105377
*CONN
*P in[0] I
*I *163:A I *D sky130_fd_sc_hd__dlymetal6s2s_1
*CAP
1 in[0] 0.000526885
2 *163:A 0.000526885
3 *163:A *164:A 0
*RES
1 in[0] *163:A 24.1943 
*END

*D_NET *4 0.000762532
*CONN
*P in[1] I
*I *164:A I *D sky130_fd_sc_hd__buf_1
*CAP
1 in[1] 0.000381266
2 *164:A 0.000381266
3 *164:A *165:A 0
4 *163:A *164:A 0
*RES
1 in[1] *164:A 22.3017 
*END

*D_NET *5 0.000572832
*CONN
*P in[2] I
*I *165:A I *D sky130_fd_sc_hd__buf_1
*CAP
1 in[2] 0.000286416
2 *165:A 0.000286416
3 *165:A *166:A 0
4 *164:A *165:A 0
*RES
1 in[2] *165:A 20.4803 
*END

*D_NET *6 0.000694675
*CONN
*P in[3] I
*I *166:A I *D sky130_fd_sc_hd__clkbuf_1
*CAP
1 in[3] 0.000347337
2 *166:A 0.000347337
3 *166:A *167:A 0
4 *166:A *39:31 0
5 *165:A *166:A 0
*RES
1 in[3] *166:A 21.6946 
*END

*D_NET *7 0.000605554
*CONN
*P in[4] I
*I *167:A I *D sky130_fd_sc_hd__buf_1
*CAP
1 in[4] 0.000302777
2 *167:A 0.000302777
3 *167:A *168:A 0
4 *167:A *39:31 0
5 *166:A *167:A 0
*RES
1 in[4] *167:A 20.7838 
*END

*D_NET *8 0.000715317
*CONN
*P in[5] I
*I *168:A I *D sky130_fd_sc_hd__buf_1
*CAP
1 in[5] 0.000357659
2 *168:A 0.000357659
3 *168:A *152:A 0
4 *168:A *169:A 0
5 *167:A *168:A 0
*RES
1 in[5] *168:A 21.9981 
*END

*D_NET *9 0.000563768
*CONN
*P in[6] I
*I *169:A I *D sky130_fd_sc_hd__buf_1
*CAP
1 in[6] 0.000281884
2 *169:A 0.000281884
3 *169:A *170:A 0
4 *168:A *169:A 0
*RES
1 in[6] *169:A 20.4803 
*END

*D_NET *10 0.00123174
*CONN
*P in[7] I
*I *170:A I *D sky130_fd_sc_hd__clkbuf_1
*CAP
1 in[7] 0.000615872
2 *170:A 0.000615872
3 *169:A *170:A 0
*RES
1 in[7] *170:A 25.0176 
*END

*D_NET *11 0.00116601
*CONN
*P out[0] O
*I *178:X O *D sky130_fd_sc_hd__buf_2
*CAP
1 out[0] 0.000583005
2 *178:X 0.000583005
3 out[0] out[1] 0
*RES
1 *178:X out[0] 23.8754 
*END

*D_NET *12 0.000438356
*CONN
*P out[1] O
*I *171:X O *D sky130_fd_sc_hd__buf_2
*CAP
1 out[1] 0.000219178
2 *171:X 0.000219178
3 out[1] out[2] 0
4 out[0] out[1] 0
*RES
1 *171:X out[1] 18.1229 
*END

*D_NET *13 0.000440675
*CONN
*P out[2] O
*I *172:X O *D sky130_fd_sc_hd__buf_2
*CAP
1 out[2] 0.00021424
2 *172:X 0.00021424
3 out[2] out[3] 0
4 out[2] *171:A 1.21955e-05
5 out[1] out[2] 0
*RES
1 *172:X out[2] 18.1229 
*END

*D_NET *14 0.000598041
*CONN
*P out[3] O
*I *173:X O *D sky130_fd_sc_hd__buf_2
*CAP
1 out[3] 0.000267648
2 *173:X 0.000267648
3 out[3] out[4] 0
4 out[3] *171:A 6.27457e-05
5 out[2] out[3] 0
*RES
1 *173:X out[3] 19.3371 
*END

*D_NET *15 0.000437128
*CONN
*P out[4] O
*I *174:X O *D sky130_fd_sc_hd__buf_2
*CAP
1 out[4] 0.000218564
2 *174:X 0.000218564
3 out[4] out[5] 0
4 out[4] *159:A 0
5 out[3] out[4] 0
*RES
1 *174:X out[4] 18.1229 
*END

*D_NET *16 0.000581652
*CONN
*P out[5] O
*I *175:X O *D sky130_fd_sc_hd__buf_2
*CAP
1 out[5] 0.000290826
2 *175:X 0.000290826
3 out[5] out[6] 0
4 out[5] *159:A 0
5 out[4] out[5] 0
*RES
1 *175:X out[5] 19.3371 
*END

*D_NET *17 0.000774071
*CONN
*P out[6] O
*I *176:X O *D sky130_fd_sc_hd__buf_2
*CAP
1 out[6] 0.000387035
2 *176:X 0.000387035
3 out[6] out[7] 0
4 out[5] out[6] 0
*RES
1 *176:X out[6] 18.5553 
*END

*D_NET *18 0.00103775
*CONN
*P out[7] O
*I *177:X O *D sky130_fd_sc_hd__clkbuf_4
*CAP
1 out[7] 0.000518877
2 *177:X 0.000518877
3 out[6] out[7] 0
*RES
1 *177:X out[7] 24.4258 
*END

*D_NET *19 0.00761037
*CONN
*I *161:B1_N I *D sky130_fd_sc_hd__a21boi_1
*I *151:A3 I *D sky130_fd_sc_hd__o31a_1
*I *148:B I *D sky130_fd_sc_hd__and2_1
*I *147:B I *D sky130_fd_sc_hd__nor2_1
*I *152:D I *D sky130_fd_sc_hd__or4_1
*I *146:X O *D sky130_fd_sc_hd__or4_2
*CAP
1 *161:B1_N 0.000397571
2 *151:A3 2.48003e-05
3 *148:B 3.82705e-05
4 *147:B 0
5 *152:D 0.0013121
6 *146:X 0
7 *19:35 0.000191925
8 *19:12 0.00152326
9 *19:10 0.00038608
10 *19:4 0.000701345
11 *148:B *148:A 0.000272994
12 *148:B *22:12 0.000259788
13 *151:A3 *37:6 0.000142152
14 *151:A3 *39:31 0.000100262
15 *151:A3 *39:38 2.14658e-05
16 *152:D *151:A2 0.000656837
17 *152:D *151:B1 0
18 *152:D *152:C 0.00055835
19 *152:D *155:A 2.19778e-05
20 *152:D *155:B 0
21 *152:D *177:A 0.000260243
22 *152:D *20:12 0
23 *152:D *38:16 0
24 *152:D *40:10 2.71557e-05
25 *152:D *41:10 0
26 *161:B1_N *161:A1 1.56e-05
27 *161:B1_N *28:8 0.000222459
28 *161:B1_N *28:19 0.000259934
29 *19:10 *146:B 0
30 *19:10 *28:8 9.77294e-05
31 *19:12 *151:A2 6.52971e-06
32 *19:12 *38:16 0
33 *19:12 *39:31 0
34 *19:35 *148:A 5.49544e-05
35 *19:35 *22:12 5.65955e-05
*RES
1 *146:X *19:4 9.3 
2 *19:4 *19:10 9.21429 
3 *19:10 *19:12 0.883929 
4 *19:12 *152:D 43.8982 
5 *19:12 *19:35 6.66964 
6 *19:35 *147:B 9.3 
7 *19:35 *148:B 11.8893 
8 *19:10 *151:A3 15.1571 
9 *19:4 *161:B1_N 15.0857 
*END

*D_NET *20 0.00368513
*CONN
*I *150:B I *D sky130_fd_sc_hd__xnor2_1
*I *149:A I *D sky130_fd_sc_hd__nor2_1
*I *147:Y O *D sky130_fd_sc_hd__nor2_1
*CAP
1 *150:B 0.000372733
2 *149:A 0.000122195
3 *147:Y 0.000503438
4 *20:12 0.000998366
5 *149:A *149:B 0.00031155
6 *149:A *174:A 0.00035449
7 *150:B *149:B 0.000142856
8 *150:B *174:A 0.000260954
9 *150:B *24:14 0.000207401
10 *20:12 *149:B 0.000148455
11 *20:12 *22:12 9.77247e-05
12 *20:12 *38:16 0.000164969
13 *152:D *20:12 0
*RES
1 *147:Y *20:12 28.7821 
2 *20:12 *149:A 13.55 
3 *20:12 *150:B 27.9964 
*END

*D_NET *21 0.00206112
*CONN
*I *149:B I *D sky130_fd_sc_hd__nor2_1
*I *148:X O *D sky130_fd_sc_hd__and2_1
*CAP
1 *149:B 0.000534437
2 *148:X 0.000534437
3 *149:B *24:14 0
4 *149:B *36:37 7.17696e-05
5 *149:B *38:16 0.000317616
6 *149:A *149:B 0.00031155
7 *150:B *149:B 0.000142856
8 *20:12 *149:B 0.000148455
*RES
1 *148:X *149:B 41.0643 
*END

*D_NET *22 0.00481103
*CONN
*I *153:A_N I *D sky130_fd_sc_hd__and2b_1
*I *151:X O *D sky130_fd_sc_hd__o31a_1
*CAP
1 *153:A_N 0
2 *151:X 0.000810711
3 *22:12 0.000810711
4 *22:12 *148:A 3.18763e-05
5 *22:12 *158:A1 4.18895e-05
6 *22:12 *158:B1 2.05612e-05
7 *22:12 *159:B 3.41599e-05
8 *22:12 *161:A2 5.10822e-05
9 *22:12 *172:A 0.000181803
10 *22:12 *178:A 0.000138418
11 *22:12 *27:14 0.000922971
12 *22:12 *34:14 0.00111242
13 *22:12 *36:37 0.000183726
14 *22:12 *39:38 5.65955e-05
15 *148:B *22:12 0.000259788
16 *19:35 *22:12 5.65955e-05
17 *20:12 *22:12 9.77247e-05
*RES
1 *151:X *22:12 43.5679 
2 *22:12 *153:A_N 9.3 
*END

*D_NET *23 0.00262673
*CONN
*I *153:B I *D sky130_fd_sc_hd__and2b_1
*I *155:B I *D sky130_fd_sc_hd__xor2_1
*I *152:X O *D sky130_fd_sc_hd__or4_1
*CAP
1 *153:B 9.11865e-05
2 *155:B 0.000457067
3 *152:X 0.000135514
4 *23:6 0.000683768
5 *153:B *152:A 3.69697e-05
6 *153:B *152:B 0.000292701
7 *153:B *159:B 0.000179656
8 *153:B *34:14 1.50181e-05
9 *155:B *152:C 0.000621854
10 *155:B *155:A 3.43995e-05
11 *23:6 *152:C 4.38128e-05
12 *23:6 *177:A 3.47797e-05
13 *152:D *155:B 0
*RES
1 *152:X *23:6 11.0679 
2 *23:6 *155:B 25.2107 
3 *23:6 *153:B 22.0679 
*END

*D_NET *24 0.0033983
*CONN
*I *154:A I *D sky130_fd_sc_hd__clkbuf_1
*I *153:X O *D sky130_fd_sc_hd__and2b_1
*CAP
1 *154:A 0
2 *153:X 0.00104185
3 *24:14 0.00104185
4 *24:14 *152:B 6.11949e-05
5 *24:14 *159:B 0
6 *24:14 *162:A 0.000188176
7 *24:14 *175:A 2.89016e-05
8 *24:14 *28:27 5.52238e-05
9 *24:14 *28:33 0.000424758
10 *24:14 *34:14 0.000322329
11 *24:14 *36:37 2.66026e-05
12 *149:B *24:14 0
13 *150:B *24:14 0.000207401
*RES
1 *153:X *24:14 41.9607 
2 *24:14 *154:A 9.3 
*END

*D_NET *25 0.00399687
*CONN
*I *159:A I *D sky130_fd_sc_hd__and2_1
*I *161:A2 I *D sky130_fd_sc_hd__a21boi_1
*I *157:X O *D sky130_fd_sc_hd__or3_1
*CAP
1 *159:A 0.000874224
2 *161:A2 0.000323392
3 *157:X 4.59739e-05
4 *25:6 0.00124359
5 *159:A *171:A 0.000174539
6 *159:A *174:A 4.35048e-05
7 *159:A *178:A 0.000778459
8 *159:A *27:14 0.000215564
9 *159:A *34:14 9.99644e-06
10 *161:A2 *159:B 7.83659e-05
11 *161:A2 *172:A 2.26327e-05
12 *161:A2 *173:A 0.000121506
13 *161:A2 *178:A 0
14 *25:6 *34:14 1.40415e-05
15 out[4] *159:A 0
16 out[5] *159:A 0
17 *22:12 *161:A2 5.10822e-05
*RES
1 *157:X *25:6 9.83571 
2 *25:6 *161:A2 25.3357 
3 *25:6 *159:A 38.925 
*END

*D_NET *26 0.00309067
*CONN
*I *159:B I *D sky130_fd_sc_hd__and2_1
*I *158:Y O *D sky130_fd_sc_hd__o21ai_1
*CAP
1 *159:B 0.000735921
2 *158:Y 0.000735921
3 *159:B *152:A 2.89016e-05
4 *159:B *152:B 2.26327e-05
5 *159:B *156:A 3.2871e-05
6 *159:B *156:B 9.15186e-06
7 *159:B *162:A 0.000131601
8 *159:B *172:A 0.000389861
9 *159:B *28:33 0
10 *159:B *34:14 0.000711629
11 *153:B *159:B 0.000179656
12 *161:A2 *159:B 7.83659e-05
13 *22:12 *159:B 3.41599e-05
14 *24:14 *159:B 0
*RES
1 *158:Y *159:B 49.1357 
*END

*D_NET *27 0.00416916
*CONN
*I *160:A I *D sky130_fd_sc_hd__clkbuf_1
*I *159:X O *D sky130_fd_sc_hd__and2_1
*CAP
1 *160:A 0
2 *159:X 0.00075225
3 *27:14 0.00075225
4 *27:14 *172:A 0.000738579
5 *27:14 *173:A 0.000262498
6 *27:14 *178:A 0.000259461
7 *27:14 *34:14 7.48356e-05
8 *27:14 *38:16 0.000190746
9 *159:A *27:14 0.000215564
10 *22:12 *27:14 0.000922971
*RES
1 *159:X *27:14 42.1929 
2 *27:14 *160:A 9.3 
*END

*D_NET *28 0.00556412
*CONN
*I *158:A2 I *D sky130_fd_sc_hd__o21ai_1
*I *157:C I *D sky130_fd_sc_hd__or3_1
*I *156:B I *D sky130_fd_sc_hd__xor2_1
*I *162:A I *D sky130_fd_sc_hd__clkbuf_1
*I *146:D I *D sky130_fd_sc_hd__or4_2
*I *163:X O *D sky130_fd_sc_hd__dlymetal6s2s_1
*CAP
1 *158:A2 0.000136541
2 *157:C 0
3 *156:B 2.73843e-06
4 *162:A 0.00044706
5 *146:D 0
6 *163:X 0.000366551
7 *28:33 0.000628271
8 *28:27 0.000370715
9 *28:19 0.000564772
10 *28:8 0.000602539
11 *158:A2 *158:B1 5.33005e-05
12 *158:A2 *37:10 0.000137983
13 *28:8 *146:A 4.22349e-05
14 *28:8 *146:C 5.33005e-05
15 *28:19 *146:A 6.05161e-06
16 *28:19 *161:A1 0.000142053
17 *28:19 *36:27 0.000107494
18 *28:19 *38:16 0
19 *28:27 *157:A 4.75521e-05
20 *28:27 *34:14 1.21258e-05
21 *28:27 *36:27 4.02462e-05
22 *28:27 *36:37 7.8327e-05
23 *28:27 *38:16 0
24 *28:33 *156:A 0.000292693
25 *28:33 *157:A 1.02504e-05
26 *28:33 *173:A 3.22834e-05
27 *159:B *156:B 9.15186e-06
28 *159:B *162:A 0.000131601
29 *159:B *28:33 0
30 *161:B1_N *28:8 0.000222459
31 *161:B1_N *28:19 0.000259934
32 *19:10 *28:8 9.77294e-05
33 *24:14 *162:A 0.000188176
34 *24:14 *28:27 5.52238e-05
35 *24:14 *28:33 0.000424758
*RES
1 *163:X *28:8 16.425 
2 *28:8 *146:D 9.3 
3 *28:8 *28:19 10.8571 
4 *28:19 *28:27 8.73214 
5 *28:27 *28:33 10.4732 
6 *28:33 *162:A 22.9696 
7 *28:33 *156:B 14.0768 
8 *28:27 *157:C 9.3 
9 *28:19 *158:A2 15.5679 
*END

*D_NET *29 0.00201377
*CONN
*I *171:A I *D sky130_fd_sc_hd__buf_2
*I *156:X O *D sky130_fd_sc_hd__xor2_1
*CAP
1 *171:A 0.000882145
2 *156:X 0.000882145
3 *171:A *178:A 0
4 out[2] *171:A 1.21955e-05
5 out[3] *171:A 6.27457e-05
6 *159:A *171:A 0.000174539
*RES
1 *156:X *171:A 44.1 
*END

*D_NET *30 0.00356083
*CONN
*I *172:A I *D sky130_fd_sc_hd__buf_2
*I *160:X O *D sky130_fd_sc_hd__clkbuf_1
*CAP
1 *172:A 0.000892052
2 *160:X 0.000892052
3 *172:A *156:A 2.26424e-05
4 *172:A *158:B1 2.89114e-05
5 *172:A *173:A 0.000392297
6 *159:B *172:A 0.000389861
7 *161:A2 *172:A 2.26327e-05
8 *22:12 *172:A 0.000181803
9 *27:14 *172:A 0.000738579
*RES
1 *160:X *172:A 44.9393 
*END

*D_NET *31 0.00239922
*CONN
*I *173:A I *D sky130_fd_sc_hd__buf_2
*I *161:Y O *D sky130_fd_sc_hd__a21boi_1
*CAP
1 *173:A 0.000550422
2 *161:Y 0.000550422
3 *173:A *156:A 0.00015304
4 *173:A *157:A 0.000222878
5 *173:A *36:27 0.000113868
6 *161:A2 *173:A 0.000121506
7 *172:A *173:A 0.000392297
8 *27:14 *173:A 0.000262498
9 *28:33 *173:A 3.22834e-05
*RES
1 *161:Y *173:A 41.8857 
*END

*D_NET *32 0.00304492
*CONN
*I *174:A I *D sky130_fd_sc_hd__buf_2
*I *149:Y O *D sky130_fd_sc_hd__nor2_1
*CAP
1 *174:A 0.00119299
2 *149:Y 0.00119299
3 *149:A *174:A 0.00035449
4 *150:B *174:A 0.000260954
5 *159:A *174:A 4.35048e-05
*RES
1 *149:Y *174:A 42.5107 
*END

*D_NET *33 0.00086806
*CONN
*I *175:A I *D sky130_fd_sc_hd__buf_2
*I *150:Y O *D sky130_fd_sc_hd__xnor2_1
*CAP
1 *175:A 0.000391967
2 *150:Y 0.000391967
3 *175:A *152:B 5.52238e-05
4 *24:14 *175:A 2.89016e-05
*RES
1 *150:Y *175:A 24.9214 
*END

*D_NET *34 0.00502476
*CONN
*I *176:A I *D sky130_fd_sc_hd__buf_2
*I *154:X O *D sky130_fd_sc_hd__clkbuf_1
*CAP
1 *176:A 0
2 *154:X 0.00119577
3 *34:14 0.00119577
4 *34:14 *152:A 0.000125717
5 *34:14 *152:B 0
6 *34:14 *156:A 5.33005e-05
7 *34:14 *177:A 0
8 *34:14 *36:37 0.000181796
9 *153:B *34:14 1.50181e-05
10 *159:A *34:14 9.99644e-06
11 *159:B *34:14 0.000711629
12 *22:12 *34:14 0.00111242
13 *24:14 *34:14 0.000322329
14 *25:6 *34:14 1.40415e-05
15 *27:14 *34:14 7.48356e-05
16 *28:27 *34:14 1.21258e-05
*RES
1 *154:X *34:14 49.675 
2 *34:14 *176:A 9.3 
*END

*D_NET *35 0.00161226
*CONN
*I *177:A I *D sky130_fd_sc_hd__clkbuf_4
*I *155:X O *D sky130_fd_sc_hd__xor2_1
*CAP
1 *177:A 0.000642102
2 *155:X 0.000642102
3 *177:A *152:C 3.30352e-05
4 *152:D *177:A 0.000260243
5 *23:6 *177:A 3.47797e-05
6 *34:14 *177:A 0
*RES
1 *155:X *177:A 39.1536 
*END

*D_NET *36 0.00518456
*CONN
*I *158:A1 I *D sky130_fd_sc_hd__o21ai_1
*I *156:A I *D sky130_fd_sc_hd__xor2_1
*I *157:B I *D sky130_fd_sc_hd__or3_1
*I *146:C I *D sky130_fd_sc_hd__or4_2
*I *164:X O *D sky130_fd_sc_hd__buf_1
*CAP
1 *158:A1 1.70436e-05
2 *156:A 0.000197838
3 *157:B 0
4 *146:C 6.98226e-05
5 *164:X 0.000593486
6 *36:37 0.000490295
7 *36:27 0.000754341
8 *36:6 0.00110815
9 *146:C *146:A 5.33005e-05
10 *146:C *146:B 0.000121573
11 *146:C *38:16 0.000121573
12 *158:A1 *37:10 2.59355e-05
13 *36:27 *157:A 5.66157e-05
14 *36:37 *148:A 5.52302e-05
15 *36:37 *157:A 0
16 *36:37 *37:10 6.57914e-05
17 *36:37 *38:16 0
18 *149:B *36:37 7.17696e-05
19 *159:B *156:A 3.2871e-05
20 *172:A *156:A 2.26424e-05
21 *173:A *156:A 0.00015304
22 *173:A *36:27 0.000113868
23 *22:12 *158:A1 4.18895e-05
24 *22:12 *36:37 0.000183726
25 *24:14 *36:37 2.66026e-05
26 *28:8 *146:C 5.33005e-05
27 *28:19 *36:27 0.000107494
28 *28:27 *36:27 4.02462e-05
29 *28:27 *36:37 7.8327e-05
30 *28:33 *156:A 0.000292693
31 *34:14 *156:A 5.33005e-05
32 *34:14 *36:37 0.000181796
*RES
1 *164:X *36:6 15.9964 
2 *36:6 *146:C 20.4786 
3 *36:6 *36:27 16.2857 
4 *36:27 *36:37 15.6964 
5 *36:37 *157:B 9.3 
6 *36:37 *156:A 23.5679 
7 *36:27 *158:A1 9.83571 
*END

*D_NET *37 0.00379771
*CONN
*I *146:B I *D sky130_fd_sc_hd__or4_2
*I *158:B1 I *D sky130_fd_sc_hd__o21ai_1
*I *157:A I *D sky130_fd_sc_hd__or3_1
*I *165:X O *D sky130_fd_sc_hd__buf_1
*CAP
1 *146:B 0.000239472
2 *158:B1 8.98861e-05
3 *157:A 9.29993e-05
4 *165:X 0.000444117
5 *37:10 0.000402189
6 *37:6 0.000902892
7 *146:B *38:16 0.000113868
8 *37:6 *148:A 7.12615e-05
9 *37:6 *39:31 0.000164729
10 *37:6 *39:38 2.571e-05
11 *37:10 *148:A 0.000317082
12 *146:C *146:B 0.000121573
13 *151:A3 *37:6 0.000142152
14 *158:A1 *37:10 2.59355e-05
15 *158:A2 *158:B1 5.33005e-05
16 *158:A2 *37:10 0.000137983
17 *172:A *158:B1 2.89114e-05
18 *173:A *157:A 0.000222878
19 *19:10 *146:B 0
20 *22:12 *158:B1 2.05612e-05
21 *28:27 *157:A 4.75521e-05
22 *28:33 *157:A 1.02504e-05
23 *36:27 *157:A 5.66157e-05
24 *36:37 *157:A 0
25 *36:37 *37:10 6.57914e-05
*RES
1 *165:X *37:6 15.5857 
2 *37:6 *37:10 5.07143 
3 *37:10 *157:A 21.1571 
4 *37:10 *158:B1 11.0857 
5 *37:6 *146:B 23.2821 
*END

*D_NET *38 0.0035344
*CONN
*I *161:A1 I *D sky130_fd_sc_hd__a21boi_1
*I *146:A I *D sky130_fd_sc_hd__or4_2
*I *166:X O *D sky130_fd_sc_hd__clkbuf_1
*CAP
1 *161:A1 0.000254617
2 *146:A 9.77755e-05
3 *166:X 0.000830801
4 *38:16 0.00118319
5 *146:B *38:16 0.000113868
6 *146:C *146:A 5.33005e-05
7 *146:C *38:16 0.000121573
8 *149:B *38:16 0.000317616
9 *152:D *38:16 0
10 *161:B1_N *161:A1 1.56e-05
11 *19:12 *38:16 0
12 *20:12 *38:16 0.000164969
13 *27:14 *38:16 0.000190746
14 *28:8 *146:A 4.22349e-05
15 *28:19 *146:A 6.05161e-06
16 *28:19 *161:A1 0.000142053
17 *28:19 *38:16 0
18 *28:27 *38:16 0
19 *36:37 *38:16 0
*RES
1 *166:X *38:16 35.8 
2 *38:16 *146:A 11.0857 
3 *38:16 *161:A1 14.3714 
*END

*D_NET *39 0.0076453
*CONN
*I *148:A I *D sky130_fd_sc_hd__and2_1
*I *147:A I *D sky130_fd_sc_hd__nor2_1
*I *151:A1 I *D sky130_fd_sc_hd__o31a_1
*I *152:A I *D sky130_fd_sc_hd__or4_1
*I *167:X O *D sky130_fd_sc_hd__buf_1
*CAP
1 *148:A 8.39892e-05
2 *147:A 0
3 *151:A1 0
4 *152:A 0.00143941
5 *167:X 0
6 *39:38 0.000137663
7 *39:31 0.000686982
8 *39:6 0.00207272
9 *152:A *151:B1 0.000589019
10 *152:A *152:B 1.37292e-05
11 *39:31 *151:B1 0.00125805
12 *148:B *148:A 0.000272994
13 *151:A3 *39:31 0.000100262
14 *151:A3 *39:38 2.14658e-05
15 *153:B *152:A 3.69697e-05
16 *159:B *152:A 2.89016e-05
17 *166:A *39:31 0
18 *167:A *39:31 0
19 *168:A *152:A 0
20 *19:12 *39:31 0
21 *19:35 *148:A 5.49544e-05
22 *22:12 *148:A 3.18763e-05
23 *22:12 *39:38 5.65955e-05
24 *34:14 *152:A 0.000125717
25 *36:37 *148:A 5.52302e-05
26 *37:6 *148:A 7.12615e-05
27 *37:6 *39:31 0.000164729
28 *37:6 *39:38 2.571e-05
29 *37:10 *148:A 0.000317082
*RES
1 *167:X *39:6 13.8 
2 *39:6 *152:A 44.3 
3 *39:6 *39:31 21.9286 
4 *39:31 *151:A1 9.3 
5 *39:31 *39:38 1.35714 
6 *39:38 *147:A 9.3 
7 *39:38 *148:A 13.9607 
*END

*D_NET *40 0.00466109
*CONN
*I *151:A2 I *D sky130_fd_sc_hd__o31a_1
*I *152:B I *D sky130_fd_sc_hd__or4_1
*I *150:A I *D sky130_fd_sc_hd__xnor2_1
*I *168:X O *D sky130_fd_sc_hd__buf_1
*CAP
1 *151:A2 0.00072853
2 *152:B 0.000389999
3 *150:A 0
4 *168:X 0.000281605
5 *40:14 0.000752409
6 *40:10 0.00137255
7 *151:A2 *151:B1 0
8 *40:10 *151:B1 0
9 *152:A *152:B 1.37292e-05
10 *152:D *151:A2 0.000656837
11 *152:D *40:10 2.71557e-05
12 *153:B *152:B 0.000292701
13 *159:B *152:B 2.26327e-05
14 *175:A *152:B 5.52238e-05
15 *19:12 *151:A2 6.52971e-06
16 *24:14 *152:B 6.11949e-05
17 *34:14 *152:B 0
*RES
1 *168:X *40:10 17.9429 
2 *40:10 *40:14 10.375 
3 *40:14 *150:A 9.3 
4 *40:14 *152:B 26.3714 
5 *40:10 *151:A2 30.6214 
*END

*D_NET *41 0.00623338
*CONN
*I *151:B1 I *D sky130_fd_sc_hd__o31a_1
*I *152:C I *D sky130_fd_sc_hd__or4_1
*I *169:X O *D sky130_fd_sc_hd__buf_1
*CAP
1 *151:B1 0.000901791
2 *152:C 0.000480188
3 *169:X 0.000182653
4 *41:10 0.00156463
5 *151:A2 *151:B1 0
6 *152:A *151:B1 0.000589019
7 *152:D *151:B1 0
8 *152:D *152:C 0.00055835
9 *152:D *41:10 0
10 *155:B *152:C 0.000621854
11 *177:A *152:C 3.30352e-05
12 *23:6 *152:C 4.38128e-05
13 *39:31 *151:B1 0.00125805
14 *40:10 *151:B1 0
*RES
1 *169:X *41:10 16.5857 
2 *41:10 *152:C 25.8536 
3 *41:10 *151:B1 37.3536 
*END

*D_NET *42 0.00102079
*CONN
*I *155:A I *D sky130_fd_sc_hd__xor2_1
*I *170:X O *D sky130_fd_sc_hd__clkbuf_1
*CAP
1 *155:A 0.000482205
2 *170:X 0.000482205
3 *152:D *155:A 2.19778e-05
4 *155:B *155:A 3.43995e-05
*RES
1 *170:X *155:A 33.7786 
*END

*D_NET *43 0.00234742
*CONN
*I *178:A I *D sky130_fd_sc_hd__buf_2
*I *162:X O *D sky130_fd_sc_hd__clkbuf_1
*CAP
1 *178:A 0.000585542
2 *162:X 0.000585542
3 *159:A *178:A 0.000778459
4 *161:A2 *178:A 0
5 *171:A *178:A 0
6 *22:12 *178:A 0.000138418
7 *27:14 *178:A 0.000259461
*RES
1 *162:X *178:A 43.8143 
*END
