*SPEF "ieee 1481-1999"
*DESIGN "twos_complement"
*DATE "14:12:29 Saturday April 26, 2025"
*VENDOR "The OpenROAD Project"
*PROGRAM "OpenROAD"
*VERSION "b16bda7e82721d10566ff7e2b68f1ff0be9f9e38"
*DESIGN_FLOW "NAME_SCOPE LOCAL" "PIN_CAP NONE"
*DIVIDER /
*DELIMITER :
*BUS_DELIMITER []
*T_UNIT 1 NS
*C_UNIT 1 PF
*R_UNIT 1 OHM
*L_UNIT 1 HENRY

*NAME_MAP
*3 in[0]
*4 in[1]
*5 in[2]
*6 in[3]
*7 in[4]
*8 in[5]
*9 in[6]
*10 in[7]
*11 out[0]
*12 out[1]
*13 out[2]
*14 out[3]
*15 out[4]
*16 out[5]
*17 out[6]
*18 out[7]
*19 _00_
*20 _01_
*21 _02_
*22 _03_
*23 _04_
*24 _05_
*25 _06_
*26 _07_
*27 _08_
*28 net1
*29 net10
*30 net11
*31 net12
*32 net13
*33 net14
*34 net15
*35 net16
*36 net2
*37 net3
*38 net4
*39 net5
*40 net6
*41 net7
*42 net8
*43 net9
*44 FILLER_0_0_21
*45 FILLER_0_0_27
*46 FILLER_0_0_29
*47 FILLER_0_0_37
*48 FILLER_0_0_9
*49 FILLER_0_10_20
*50 FILLER_0_10_29
*51 FILLER_0_10_35
*52 FILLER_0_10_43
*53 FILLER_0_10_6
*54 FILLER_0_11_18
*55 FILLER_0_11_30
*56 FILLER_0_11_42
*57 FILLER_0_11_6
*58 FILLER_0_12_13
*59 FILLER_0_12_23
*60 FILLER_0_12_27
*61 FILLER_0_12_35
*62 FILLER_0_12_39
*63 FILLER_0_1_15
*64 FILLER_0_1_23
*65 FILLER_0_1_3
*66 FILLER_0_1_31
*67 FILLER_0_1_38
*68 FILLER_0_1_46
*69 FILLER_0_2_15
*70 FILLER_0_2_27
*71 FILLER_0_2_29
*72 FILLER_0_2_3
*73 FILLER_0_2_37
*74 FILLER_0_2_43
*75 FILLER_0_2_47
*76 FILLER_0_3_18
*77 FILLER_0_3_24
*78 FILLER_0_3_38
*79 FILLER_0_3_6
*80 FILLER_0_4_15
*81 FILLER_0_4_27
*82 FILLER_0_4_29
*83 FILLER_0_4_3
*84 FILLER_0_4_41
*85 FILLER_0_4_47
*86 FILLER_0_5_18
*87 FILLER_0_5_30
*88 FILLER_0_5_38
*89 FILLER_0_5_43
*90 FILLER_0_5_6
*91 FILLER_0_6_14
*92 FILLER_0_6_26
*93 FILLER_0_6_29
*94 FILLER_0_6_3
*95 FILLER_0_6_41
*96 FILLER_0_6_47
*97 FILLER_0_7_15
*98 FILLER_0_7_27
*99 FILLER_0_7_3
*100 FILLER_0_7_35
*101 FILLER_0_7_47
*102 FILLER_0_8_17
*103 FILLER_0_8_25
*104 FILLER_0_8_29
*105 FILLER_0_8_41
*106 FILLER_0_8_6
*107 FILLER_0_9_11
*108 FILLER_0_9_16
*109 FILLER_0_9_28
*110 FILLER_0_9_3
*111 FILLER_0_9_35
*112 FILLER_0_9_47
*113 PHY_EDGE_ROW_0_Left_13
*114 PHY_EDGE_ROW_0_Right_0
*115 PHY_EDGE_ROW_10_Left_23
*116 PHY_EDGE_ROW_10_Right_10
*117 PHY_EDGE_ROW_11_Left_24
*118 PHY_EDGE_ROW_11_Right_11
*119 PHY_EDGE_ROW_12_Left_25
*120 PHY_EDGE_ROW_12_Right_12
*121 PHY_EDGE_ROW_1_Left_14
*122 PHY_EDGE_ROW_1_Right_1
*123 PHY_EDGE_ROW_2_Left_15
*124 PHY_EDGE_ROW_2_Right_2
*125 PHY_EDGE_ROW_3_Left_16
*126 PHY_EDGE_ROW_3_Right_3
*127 PHY_EDGE_ROW_4_Left_17
*128 PHY_EDGE_ROW_4_Right_4
*129 PHY_EDGE_ROW_5_Left_18
*130 PHY_EDGE_ROW_5_Right_5
*131 PHY_EDGE_ROW_6_Left_19
*132 PHY_EDGE_ROW_6_Right_6
*133 PHY_EDGE_ROW_7_Left_20
*134 PHY_EDGE_ROW_7_Right_7
*135 PHY_EDGE_ROW_8_Left_21
*136 PHY_EDGE_ROW_8_Right_8
*137 PHY_EDGE_ROW_9_Left_22
*138 PHY_EDGE_ROW_9_Right_9
*139 TAP_TAPCELL_ROW_0_26
*140 TAP_TAPCELL_ROW_10_31
*141 TAP_TAPCELL_ROW_12_32
*142 TAP_TAPCELL_ROW_2_27
*143 TAP_TAPCELL_ROW_4_28
*144 TAP_TAPCELL_ROW_6_29
*145 TAP_TAPCELL_ROW_8_30
*146 _09_
*147 _10_
*148 _11_
*149 _12_
*150 _13_
*151 _14_
*152 _15_
*153 _16_
*154 _17_
*155 _18_
*156 _19_
*157 _20_
*158 _21_
*159 _22_
*160 _23_
*161 _24_
*162 _25_
*163 input1
*164 input2
*165 input3
*166 input4
*167 input5
*168 input6
*169 input7
*170 input8
*171 output10
*172 output11
*173 output12
*174 output13
*175 output14
*176 output15
*177 output16
*178 output9

*PORTS
in[0] I
in[1] I
in[2] I
in[3] I
in[4] I
in[5] I
in[6] I
in[7] I
out[0] O
out[1] O
out[2] O
out[3] O
out[4] O
out[5] O
out[6] O
out[7] O

*D_NET *3 0.00111812
*CONN
*P in[0] I
*I *163:A I *D sky130_fd_sc_hd__dlymetal6s2s_1
*CAP
1 in[0] 0.00055906
2 *163:A 0
3 *3:11 0.00055906
4 *3:11 *4:17 0
*RES
1 in[0] *3:11 31.1218 
2 *3:11 *163:A 23 
*END

*D_NET *4 0.000815582
*CONN
*P in[1] I
*I *164:A I *D sky130_fd_sc_hd__buf_1
*CAP
1 in[1] 0.000407791
2 *164:A 0
3 *4:17 0.000407791
4 *4:17 *165:A 0
5 *3:11 *4:17 0
*RES
1 in[1] *4:17 28.9191 
2 *4:17 *164:A 23 
*END

*D_NET *5 0.000615123
*CONN
*P in[2] I
*I *165:A I *D sky130_fd_sc_hd__buf_1
*CAP
1 in[2] 0.000307562
2 *165:A 0.000307562
3 *165:A *6:17 0
4 *4:17 *165:A 0
*RES
1 in[2] *165:A 49.8062 
*END

*D_NET *6 0.000742726
*CONN
*P in[3] I
*I *166:A I *D sky130_fd_sc_hd__clkbuf_1
*CAP
1 in[3] 0.000371363
2 *166:A 0
3 *6:17 0.000371363
4 *6:17 *7:17 0
5 *6:17 *39:31 0
6 *165:A *6:17 0
*RES
1 in[3] *6:17 28.2148 
2 *6:17 *166:A 23 
*END

*D_NET *7 0.000650175
*CONN
*P in[4] I
*I *167:A I *D sky130_fd_sc_hd__buf_1
*CAP
1 in[4] 0.000325087
2 *167:A 0
3 *7:17 0.000325087
4 *7:17 *8:17 0
5 *7:17 *39:31 0
6 *6:17 *7:17 0
*RES
1 in[4] *7:17 27.1584 
2 *7:17 *167:A 23 
*END

*D_NET *8 0.000761607
*CONN
*P in[5] I
*I *168:A I *D sky130_fd_sc_hd__buf_1
*CAP
1 in[5] 0.000380803
2 *168:A 0
3 *8:17 0.000380803
4 *8:17 *169:A 0
5 *8:17 *39:12 0
6 *7:17 *8:17 0
*RES
1 in[5] *8:17 28.567 
2 *8:17 *168:A 23 
*END

*D_NET *9 0.000603153
*CONN
*P in[6] I
*I *169:A I *D sky130_fd_sc_hd__buf_1
*CAP
1 in[6] 0.000301577
2 *169:A 0.000301577
3 *169:A *10:11 0
4 *8:17 *169:A 0
*RES
1 in[6] *169:A 49.8062 
*END

*D_NET *10 0.00130197
*CONN
*P in[7] I
*I *170:A I *D sky130_fd_sc_hd__clkbuf_1
*CAP
1 in[7] 0.000650983
2 *170:A 0
3 *10:11 0.000650983
4 *169:A *10:11 0
*RES
1 in[7] *10:11 32.0837 
2 *10:11 *170:A 23 
*END

*D_NET *11 0.00123536
*CONN
*P out[0] O
*I *178:X O *D sky130_fd_sc_hd__buf_2
*CAP
1 out[0] 0.00029892
2 *178:X 0.000318757
3 *11:8 0.000617678
4 out[0] out[1] 0
*RES
1 *178:X *11:8 44.6596 
2 *11:8 out[0] 9.10133 
*END

*D_NET *12 0.00046494
*CONN
*P out[1] O
*I *171:X O *D sky130_fd_sc_hd__buf_2
*CAP
1 out[1] 0.00023247
2 *171:X 0.00023247
3 out[1] out[2] 0
4 out[0] out[1] 0
*RES
1 *171:X out[1] 47.0789 
*END

*D_NET *13 0.000467688
*CONN
*P out[2] O
*I *172:X O *D sky130_fd_sc_hd__buf_2
*CAP
1 out[2] 0.000227473
2 *172:X 0.000227473
3 out[2] out[3] 0
4 out[2] *29:12 1.27424e-05
5 out[1] out[2] 0
*RES
1 *172:X out[2] 47.0789 
*END

*D_NET *14 0.000645346
*CONN
*P out[3] O
*I *173:X O *D sky130_fd_sc_hd__buf_2
*CAP
1 out[3] 0.000289936
2 *173:X 0.000289936
3 out[3] out[4] 0
4 out[3] *29:12 6.54744e-05
5 out[2] out[3] 0
*RES
1 *173:X out[3] 48.4875 
*END

*D_NET *15 0.000463691
*CONN
*P out[4] O
*I *174:X O *D sky130_fd_sc_hd__buf_2
*CAP
1 out[4] 0.000231846
2 *174:X 0.000231846
3 out[4] out[5] 0
4 out[4] *25:25 0
5 out[3] out[4] 0
*RES
1 *174:X out[4] 47.0789 
*END

*D_NET *16 0.000626916
*CONN
*P out[5] O
*I *175:X O *D sky130_fd_sc_hd__buf_2
*CAP
1 out[5] 0.000313458
2 *175:X 0.000313458
3 out[5] out[6] 0
4 out[5] *25:25 0
5 out[4] out[5] 0
*RES
1 *175:X out[5] 48.4875 
*END

*D_NET *17 0.00082954
*CONN
*P out[6] O
*I *176:X O *D sky130_fd_sc_hd__buf_2
*CAP
1 out[6] 0.00041477
2 *176:X 0.00041477
3 out[6] out[7] 0
4 out[5] out[6] 0
*RES
1 *176:X out[6] 47.5941 
*END

*D_NET *18 0.00110166
*CONN
*P out[7] O
*I *177:X O *D sky130_fd_sc_hd__clkbuf_4
*CAP
1 out[7] 0.000175108
2 *177:X 0.000375724
3 *18:8 0.000550832
4 out[6] out[7] 0
*RES
1 *177:X *18:8 45.7161 
2 *18:8 out[7] 8.672 
*END

*D_NET *19 0.00824526
*CONN
*I *161:B1_N I *D sky130_fd_sc_hd__a21boi_1
*I *151:A3 I *D sky130_fd_sc_hd__o31a_1
*I *148:B I *D sky130_fd_sc_hd__and2_1
*I *147:B I *D sky130_fd_sc_hd__nor2_1
*I *152:D I *D sky130_fd_sc_hd__or4_1
*I *146:X O *D sky130_fd_sc_hd__or4_2
*CAP
1 *161:B1_N 0.000427
2 *151:A3 2.95236e-05
3 *148:B 4.49144e-05
4 *147:B 0
5 *152:D 0
6 *146:X 0
7 *19:35 0.000228471
8 *19:22 0.0014905
9 *19:12 0.00174096
10 *19:10 0.000442222
11 *19:4 0.000772791
12 *148:B *148:A 0.000272099
13 *148:B *22:8 0.000258576
14 *151:A3 *37:6 0.000143535
15 *151:A3 *39:31 0.000101762
16 *151:A3 *39:38 2.18409e-05
17 *161:B1_N *161:A1 1.5769e-05
18 *161:B1_N *28:8 0.000224909
19 *161:B1_N *28:19 0.000258245
20 *19:10 *28:8 9.92544e-05
21 *19:10 *37:36 0
22 *19:12 *38:16 0
23 *19:12 *39:31 0
24 *19:12 *40:36 6.78755e-06
25 *19:22 *20:12 0
26 *19:22 *23:14 0
27 *19:22 *35:12 0.000264336
28 *19:22 *38:16 0
29 *19:22 *40:10 2.8183e-05
30 *19:22 *40:36 0.000682144
31 *19:22 *41:10 0
32 *19:22 *41:16 0.000555632
33 *19:22 *41:27 0
34 *19:22 *42:10 2.22183e-05
35 *19:35 *148:A 5.56356e-05
36 *19:35 *22:8 5.79559e-05
*RES
1 *146:X *19:4 23 
2 *19:4 *19:10 20.4686 
3 *19:10 *19:12 1.02536 
4 *19:12 *19:22 49.9139 
5 *19:22 *152:D 23 
6 *19:12 *19:35 17.5168 
7 *19:35 *147:B 23 
8 *19:35 *148:B 26.0036 
9 *19:10 *151:A3 39.5743 
10 *19:4 *161:B1_N 29.7114 
*END

*D_NET *20 0.0040026
*CONN
*I *150:B I *D sky130_fd_sc_hd__xnor2_1
*I *149:A I *D sky130_fd_sc_hd__nor2_1
*I *147:Y O *D sky130_fd_sc_hd__nor2_1
*CAP
1 *150:B 0
2 *149:A 0.000138917
3 *147:Y 7.94472e-05
4 *20:29 0.000426914
5 *20:12 0.0010696
6 *20:8 0.000583213
7 *149:A *149:B 0.000315386
8 *149:A *32:6 0.000358299
9 *20:8 *22:8 9.92477e-05
10 *20:12 *21:8 0.000149442
11 *20:12 *38:16 0.000171951
12 *20:29 *149:B 0.00014196
13 *20:29 *24:14 0.000209084
14 *20:29 *32:6 0.000259146
15 *19:22 *20:12 0
*RES
1 *147:Y *20:8 39.0979 
2 *20:8 *20:12 26.0614 
3 *20:12 *149:A 27.93 
4 *20:12 *20:29 41.2479 
5 *20:29 *150:B 23 
*END

*D_NET *21 0.00227387
*CONN
*I *149:B I *D sky130_fd_sc_hd__nor2_1
*I *148:X O *D sky130_fd_sc_hd__and2_1
*CAP
1 *149:B 0.000195436
2 *148:X 0.000426251
3 *21:8 0.000621687
4 *21:8 *24:14 0
5 *21:8 *36:37 7.20726e-05
6 *21:8 *38:16 0.000351636
7 *149:A *149:B 0.000315386
8 *20:12 *21:8 0.000149442
9 *20:29 *149:B 0.00014196
*RES
1 *148:X *21:8 48.7093 
2 *21:8 *149:B 42.9093 
*END

*D_NET *22 0.00535886
*CONN
*I *153:A_N I *D sky130_fd_sc_hd__and2b_1
*I *151:X O *D sky130_fd_sc_hd__o31a_1
*CAP
1 *153:A_N 0
2 *151:X 0.000511605
3 *22:12 0.00045853
4 *22:8 0.000970135
5 *22:8 *148:A 3.28426e-05
6 *22:8 *158:A1 4.17736e-05
7 *22:8 *158:B1 2.06822e-05
8 *22:8 *172:A 0.000181131
9 *22:8 *36:37 0.000182832
10 *22:8 *39:38 5.79559e-05
11 *22:12 *25:14 5.31444e-05
12 *22:12 *26:12 3.4678e-05
13 *22:12 *27:14 0.00102442
14 *22:12 *34:14 0.00123415
15 *22:12 *43:10 0.000139203
16 *148:B *22:8 0.000258576
17 *19:35 *22:8 5.79559e-05
18 *20:8 *22:8 9.92477e-05
*RES
1 *151:X *22:8 48.15 
2 *22:8 *22:12 34.1607 
3 *22:12 *153:A_N 23 
*END

*D_NET *23 0.00278666
*CONN
*I *153:B I *D sky130_fd_sc_hd__and2b_1
*I *155:B I *D sky130_fd_sc_hd__xor2_1
*I *152:X O *D sky130_fd_sc_hd__or4_1
*CAP
1 *153:B 0
2 *155:B 0
3 *152:X 0.000146667
4 *23:25 0.000116506
5 *23:14 0.000474388
6 *23:6 0.000737561
7 *23:6 *35:12 3.46673e-05
8 *23:6 *41:16 4.34745e-05
9 *23:14 *41:16 0.000617576
10 *23:14 *42:10 3.8696e-05
11 *23:25 *26:12 0.000199701
12 *23:25 *34:14 1.52362e-05
13 *23:25 *39:18 3.83778e-05
14 *23:25 *40:27 0.000323812
15 *19:22 *23:14 0
*RES
1 *152:X *23:6 25.0507 
2 *23:6 *23:14 38.0164 
3 *23:14 *155:B 23 
4 *23:6 *23:25 34.3707 
5 *23:25 *153:B 23 
*END

*D_NET *24 0.00377892
*CONN
*I *154:A I *D sky130_fd_sc_hd__clkbuf_1
*I *153:X O *D sky130_fd_sc_hd__and2b_1
*CAP
1 *154:A 0
2 *153:X 0.000109754
3 *24:14 0.00109038
4 *24:8 0.00120014
5 *24:8 *33:10 2.93747e-05
6 *24:8 *40:27 3.17634e-05
7 *24:14 *162:A 0.000196449
8 *24:14 *26:12 0
9 *24:14 *28:27 5.50049e-05
10 *24:14 *28:33 0.000470366
11 *24:14 *34:8 0.000330182
12 *24:14 *36:37 2.64506e-05
13 *24:14 *40:27 2.99716e-05
14 *20:29 *24:14 0.000209084
15 *21:8 *24:14 0
*RES
1 *153:X *24:8 39.5743 
2 *24:8 *24:14 40.8721 
3 *24:14 *154:A 23 
*END

*D_NET *25 0.00447051
*CONN
*I *159:A I *D sky130_fd_sc_hd__and2_1
*I *161:A2 I *D sky130_fd_sc_hd__a21boi_1
*I *157:X O *D sky130_fd_sc_hd__or3_1
*CAP
1 *159:A 0
2 *161:A2 0
3 *157:X 5.17257e-05
4 *25:25 0.00099785
5 *25:14 0.00038057
6 *25:6 0.00143015
7 *25:6 *34:8 1.39431e-05
8 *25:14 *172:A 2.3529e-05
9 *25:14 *26:12 8.62876e-05
10 *25:14 *31:8 0.000122237
11 *25:14 *43:10 0
12 *25:25 *27:14 0.000217613
13 *25:25 *29:12 0.000176217
14 *25:25 *32:12 4.3407e-05
15 *25:25 *34:8 9.88574e-06
16 *25:25 *34:14 0
17 *25:25 *43:10 0.000863955
18 out[4] *25:25 0
19 out[5] *25:25 0
20 *22:12 *25:14 5.31444e-05
*RES
1 *157:X *25:6 23.6214 
2 *25:6 *25:14 38.1614 
3 *25:14 *161:A2 23 
4 *25:6 *25:25 38.925 
5 *25:25 *159:A 38 
*END

*D_NET *26 0.00346881
*CONN
*I *159:B I *D sky130_fd_sc_hd__and2_1
*I *158:Y O *D sky130_fd_sc_hd__o21ai_1
*CAP
1 *159:B 0
2 *158:Y 0
3 *26:12 0.000872934
4 *26:6 0.000872934
5 *26:12 *156:B 9.33529e-06
6 *26:12 *162:A 0.000132618
7 *26:12 *172:A 0.000431852
8 *26:12 *28:33 0
9 *26:12 *34:14 0.000742691
10 *26:12 *36:54 3.28772e-05
11 *26:12 *39:12 2.93747e-05
12 *26:12 *40:27 2.3529e-05
13 *22:12 *26:12 3.4678e-05
14 *23:25 *26:12 0.000199701
15 *24:14 *26:12 0
16 *25:14 *26:12 8.62876e-05
*RES
1 *158:Y *26:6 38 
2 *26:6 *26:12 39.9814 
3 *26:12 *159:B 23 
*END

*D_NET *27 0.00459296
*CONN
*I *160:A I *D sky130_fd_sc_hd__clkbuf_1
*I *159:X O *D sky130_fd_sc_hd__and2_1
*CAP
1 *160:A 0
2 *159:X 0
3 *27:14 0.000902299
4 *27:6 0.000902299
5 *27:14 *173:A 0.000261951
6 *27:14 *30:8 0.000739249
7 *27:14 *34:14 7.80354e-05
8 *27:14 *38:12 0.000196398
9 *27:14 *43:10 0.000270706
10 *22:12 *27:14 0.00102442
11 *25:25 *27:14 0.000217613
*RES
1 *159:X *27:6 38 
2 *27:6 *27:14 42.7157 
3 *27:14 *160:A 23 
*END

*D_NET *28 0.00614828
*CONN
*I *158:A2 I *D sky130_fd_sc_hd__o21ai_1
*I *157:C I *D sky130_fd_sc_hd__or3_1
*I *156:B I *D sky130_fd_sc_hd__xor2_1
*I *162:A I *D sky130_fd_sc_hd__clkbuf_1
*I *146:D I *D sky130_fd_sc_hd__or4_2
*I *163:X O *D sky130_fd_sc_hd__dlymetal6s2s_1
*CAP
1 *158:A2 0.000151027
2 *157:C 0
3 *156:B 2.9932e-06
4 *162:A 0.000518481
5 *146:D 0
6 *163:X 0.000398727
7 *28:33 0.000741959
8 *28:27 0.000450878
9 *28:19 0.000659306
10 *28:8 0.000676612
11 *158:A2 *158:B1 5.3304e-05
12 *158:A2 *37:10 0.000137651
13 *28:8 *146:A 4.34464e-05
14 *28:8 *36:14 5.3304e-05
15 *28:19 *146:A 6.17437e-06
16 *28:19 *161:A1 0.000144067
17 *28:19 *36:27 0.000112169
18 *28:19 *38:16 0
19 *28:27 *34:8 1.21972e-05
20 *28:27 *36:27 4.18957e-05
21 *28:27 *36:37 8.16253e-05
22 *28:27 *37:16 4.73689e-05
23 *28:27 *38:16 0
24 *28:33 *31:8 3.36638e-05
25 *28:33 *36:54 0.000323803
26 *28:33 *37:16 1.14452e-05
27 *161:B1_N *28:8 0.000224909
28 *161:B1_N *28:19 0.000258245
29 *19:10 *28:8 9.92544e-05
30 *24:14 *162:A 0.000196449
31 *24:14 *28:27 5.50049e-05
32 *24:14 *28:33 0.000470366
33 *26:12 *156:B 9.33529e-06
34 *26:12 *162:A 0.000132618
35 *26:12 *28:33 0
*RES
1 *163:X *28:8 31.265 
2 *28:8 *146:D 23 
3 *28:8 *28:19 22.3743 
4 *28:19 *28:27 19.9093 
5 *28:27 *28:33 21.9289 
6 *28:33 *162:A 48.6368 
7 *28:33 *156:B 38.3211 
8 *28:27 *157:C 23 
9 *28:19 *158:A2 40.0507 
*END

*D_NET *29 0.00225391
*CONN
*I *171:A I *D sky130_fd_sc_hd__buf_2
*I *156:X O *D sky130_fd_sc_hd__xor2_1
*CAP
1 *171:A 0
2 *156:X 0.00034682
3 *29:12 0.000652917
4 *29:8 0.000999737
5 *29:12 *43:10 0
6 out[2] *29:12 1.27424e-05
7 out[3] *29:12 6.54744e-05
8 *25:25 *29:12 0.000176217
*RES
1 *156:X *29:8 42.9093 
2 *29:8 *29:12 29.2307 
3 *29:12 *171:A 23 
*END

*D_NET *30 0.00385576
*CONN
*I *172:A I *D sky130_fd_sc_hd__buf_2
*I *160:X O *D sky130_fd_sc_hd__clkbuf_1
*CAP
1 *172:A 0.000447304
2 *160:X 0.000548725
3 *30:8 0.000996029
4 *172:A *158:B1 2.93845e-05
5 *172:A *31:8 0.000435022
6 *172:A *36:54 2.35393e-05
7 *22:8 *172:A 0.000181131
8 *25:14 *172:A 2.3529e-05
9 *26:12 *172:A 0.000431852
10 *27:14 *30:8 0.000739249
*RES
1 *160:X *30:8 46.2443 
2 *30:8 *172:A 49.8693 
*END

*D_NET *31 0.0027152
*CONN
*I *173:A I *D sky130_fd_sc_hd__buf_2
*I *161:Y O *D sky130_fd_sc_hd__a21boi_1
*CAP
1 *173:A 0.000347891
2 *161:Y 0.000315672
3 *31:8 0.000663563
4 *31:8 *36:27 0.000118786
5 *31:8 *36:54 0.000169665
6 *31:8 *37:16 0.000246748
7 *172:A *31:8 0.000435022
8 *25:14 *31:8 0.000122237
9 *27:14 *173:A 0.000261951
10 *28:33 *31:8 3.36638e-05
*RES
1 *161:Y *31:8 48.7093 
2 *31:8 *173:A 43.8621 
*END

*D_NET *32 0.00323781
*CONN
*I *174:A I *D sky130_fd_sc_hd__buf_2
*I *149:Y O *D sky130_fd_sc_hd__nor2_1
*CAP
1 *174:A 0
2 *149:Y 0.00119311
3 *32:12 9.5373e-05
4 *32:6 0.00128848
5 *149:A *32:6 0.000358299
6 *20:29 *32:6 0.000259146
7 *25:25 *32:12 4.3407e-05
*RES
1 *149:Y *32:6 38.3907 
2 *32:6 *32:12 31.9057 
3 *32:12 *174:A 23 
*END

*D_NET *33 0.00096299
*CONN
*I *175:A I *D sky130_fd_sc_hd__buf_2
*I *150:Y O *D sky130_fd_sc_hd__xnor2_1
*CAP
1 *175:A 0
2 *150:Y 0.000439305
3 *33:10 0.000439305
4 *33:10 *40:27 5.50049e-05
5 *24:8 *33:10 2.93747e-05
*RES
1 *150:Y *33:10 30.3329 
2 *33:10 *175:A 23 
*END

*D_NET *34 0.00563309
*CONN
*I *176:A I *D sky130_fd_sc_hd__buf_2
*I *154:X O *D sky130_fd_sc_hd__clkbuf_1
*CAP
1 *176:A 0
2 *154:X 0.000551533
3 *34:14 0.000860283
4 *34:8 0.00141182
5 *34:8 *36:37 0.000181125
6 *34:8 *36:54 5.3304e-05
7 *34:14 *177:A 0
8 *34:14 *39:18 0.000138708
9 *34:14 *40:27 0
10 *22:12 *34:14 0.00123415
11 *23:25 *34:14 1.52362e-05
12 *24:14 *34:8 0.000330182
13 *25:6 *34:8 1.39431e-05
14 *25:25 *34:8 9.88574e-06
15 *25:25 *34:14 0
16 *26:12 *34:14 0.000742691
17 *27:14 *34:14 7.80354e-05
18 *28:27 *34:8 1.21972e-05
*RES
1 *154:X *34:8 48.15 
2 *34:8 *34:14 41.245 
3 *34:14 *176:A 23 
*END

*D_NET *35 0.0017146
*CONN
*I *177:A I *D sky130_fd_sc_hd__clkbuf_4
*I *155:X O *D sky130_fd_sc_hd__xor2_1
*CAP
1 *177:A 0.000145207
2 *155:X 0.000545879
3 *35:12 0.000691087
4 *35:12 *41:16 3.34247e-05
5 *19:22 *35:12 0.000264336
6 *23:6 *35:12 3.46673e-05
7 *34:14 *177:A 0
*RES
1 *155:X *35:12 48.7921 
2 *35:12 *177:A 40.61 
*END

*D_NET *36 0.00567602
*CONN
*I *158:A1 I *D sky130_fd_sc_hd__o21ai_1
*I *156:A I *D sky130_fd_sc_hd__xor2_1
*I *157:B I *D sky130_fd_sc_hd__or3_1
*I *146:C I *D sky130_fd_sc_hd__or4_2
*I *164:X O *D sky130_fd_sc_hd__buf_1
*CAP
1 *158:A1 2.28037e-05
2 *156:A 0
3 *157:B 0
4 *146:C 0
5 *164:X 0.000621179
6 *36:54 0.000240717
7 *36:37 0.000584231
8 *36:27 0.000857176
9 *36:14 9.58875e-05
10 *36:6 0.00120792
11 *158:A1 *37:10 2.64616e-05
12 *36:14 *146:A 5.3304e-05
13 *36:14 *37:36 0.000133316
14 *36:14 *38:16 0.000133316
15 *36:27 *37:16 6.25829e-05
16 *36:37 *148:A 5.50106e-05
17 *36:37 *37:10 6.68919e-05
18 *36:37 *37:16 0
19 *36:37 *38:16 0
20 *172:A *36:54 2.35393e-05
21 *21:8 *36:37 7.20726e-05
22 *22:8 *158:A1 4.17736e-05
23 *22:8 *36:37 0.000182832
24 *24:14 *36:37 2.64506e-05
25 *26:12 *36:54 3.28772e-05
26 *28:8 *36:14 5.3304e-05
27 *28:19 *36:27 0.000112169
28 *28:27 *36:27 4.18957e-05
29 *28:27 *36:37 8.16253e-05
30 *28:33 *36:54 0.000323803
31 *31:8 *36:27 0.000118786
32 *31:8 *36:54 0.000169665
33 *34:8 *36:37 0.000181125
34 *34:8 *36:54 5.3304e-05
*RES
1 *164:X *36:6 30.7679 
2 *36:6 *36:14 32.5271 
3 *36:14 *146:C 23 
4 *36:6 *36:27 38.4514 
5 *36:27 *36:37 37.7679 
6 *36:37 *157:B 23 
7 *36:37 *36:54 36.1107 
8 *36:54 *156:A 23 
9 *36:27 *158:A1 23.6214 
*END

*D_NET *37 0.0041246
*CONN
*I *146:B I *D sky130_fd_sc_hd__or4_2
*I *158:B1 I *D sky130_fd_sc_hd__o21ai_1
*I *157:A I *D sky130_fd_sc_hd__or3_1
*I *165:X O *D sky130_fd_sc_hd__buf_1
*CAP
1 *146:B 0
2 *158:B1 0.000104189
3 *157:A 0
4 *165:X 0.00046586
5 *37:36 0.000286217
6 *37:16 0.000117101
7 *37:10 0.000468726
8 *37:6 0.000999512
9 *37:6 *148:A 7.4094e-05
10 *37:6 *39:31 0.000170099
11 *37:6 *39:38 2.56944e-05
12 *37:10 *148:A 0.00031495
13 *37:36 *38:16 0.000118786
14 *151:A3 *37:6 0.000143535
15 *158:A1 *37:10 2.64616e-05
16 *158:A2 *158:B1 5.3304e-05
17 *158:A2 *37:10 0.000137651
18 *172:A *158:B1 2.93845e-05
19 *19:10 *37:36 0
20 *22:8 *158:B1 2.06822e-05
21 *28:27 *37:16 4.73689e-05
22 *28:33 *37:16 1.14452e-05
23 *31:8 *37:16 0.000246748
24 *36:14 *37:36 0.000133316
25 *36:27 *37:16 6.25829e-05
26 *36:37 *37:10 6.68919e-05
27 *36:37 *37:16 0
*RES
1 *165:X *37:6 30.2914 
2 *37:6 *37:10 5.88286 
3 *37:10 *37:16 33.3143 
4 *37:16 *157:A 23 
5 *37:10 *158:B1 25.0714 
6 *37:6 *37:36 35.7793 
7 *37:36 *146:B 23 
*END

*D_NET *38 0.00393704
*CONN
*I *161:A1 I *D sky130_fd_sc_hd__a21boi_1
*I *146:A I *D sky130_fd_sc_hd__or4_2
*I *166:X O *D sky130_fd_sc_hd__clkbuf_1
*CAP
1 *161:A1 0.000275967
2 *146:A 0.000113816
3 *166:X 0.00047886
4 *38:16 0.000872234
5 *38:12 0.000961312
6 *161:B1_N *161:A1 1.5769e-05
7 *19:12 *38:16 0
8 *19:22 *38:16 0
9 *20:12 *38:16 0.000171951
10 *21:8 *38:16 0.000351636
11 *27:14 *38:12 0.000196398
12 *28:8 *146:A 4.34464e-05
13 *28:19 *146:A 6.17437e-06
14 *28:19 *161:A1 0.000144067
15 *28:19 *38:16 0
16 *28:27 *38:16 0
17 *36:14 *146:A 5.3304e-05
18 *36:14 *38:16 0.000133316
19 *36:37 *38:16 0
20 *37:36 *38:16 0.000118786
*RES
1 *166:X *38:12 46.8864 
2 *38:12 *38:16 26.4136 
3 *38:16 *146:A 25.0714 
4 *38:16 *161:A1 28.8829 
*END

*D_NET *39 0.0082922
*CONN
*I *148:A I *D sky130_fd_sc_hd__and2_1
*I *147:A I *D sky130_fd_sc_hd__nor2_1
*I *151:A1 I *D sky130_fd_sc_hd__o31a_1
*I *152:A I *D sky130_fd_sc_hd__or4_1
*I *167:X O *D sky130_fd_sc_hd__buf_1
*CAP
1 *148:A 9.7496e-05
2 *147:A 0
3 *151:A1 0
4 *152:A 0
5 *167:X 0
6 *39:38 0.00016066
7 *39:31 0.000789292
8 *39:18 9.5488e-05
9 *39:12 0.00154299
10 *39:6 0.00217363
11 *39:12 *41:27 0.000654226
12 *39:18 *40:27 1.34354e-05
13 *39:31 *41:27 0.00137655
14 *148:B *148:A 0.000272099
15 *151:A3 *39:31 0.000101762
16 *151:A3 *39:38 2.18409e-05
17 *6:17 *39:31 0
18 *7:17 *39:31 0
19 *8:17 *39:12 0
20 *19:12 *39:31 0
21 *19:35 *148:A 5.56356e-05
22 *22:8 *148:A 3.28426e-05
23 *22:8 *39:38 5.79559e-05
24 *23:25 *39:18 3.83778e-05
25 *26:12 *39:12 2.93747e-05
26 *34:14 *39:18 0.000138708
27 *36:37 *148:A 5.50106e-05
28 *37:6 *148:A 7.4094e-05
29 *37:6 *39:31 0.000170099
30 *37:6 *39:38 2.56944e-05
31 *37:10 *148:A 0.00031495
*RES
1 *167:X *39:6 38 
2 *39:6 *39:12 38.0343 
3 *39:12 *39:18 31.9057 
4 *39:18 *152:A 23 
5 *39:6 *39:31 35.2171 
6 *39:31 *151:A1 23 
7 *39:31 *39:38 1.57429 
8 *39:38 *147:A 23 
9 *39:38 *148:A 28.4064 
*END

*D_NET *40 0.00517067
*CONN
*I *151:A2 I *D sky130_fd_sc_hd__o31a_1
*I *152:B I *D sky130_fd_sc_hd__or4_1
*I *150:A I *D sky130_fd_sc_hd__xnor2_1
*I *168:X O *D sky130_fd_sc_hd__buf_1
*CAP
1 *151:A2 0
2 *152:B 0
3 *150:A 0
4 *168:X 0.000317397
5 *40:36 0.000825472
6 *40:27 0.000455942
7 *40:14 0.000845151
8 *40:10 0.00153208
9 *40:10 *41:27 0
10 *40:36 *41:27 0
11 *19:12 *40:36 6.78755e-06
12 *19:22 *40:10 2.8183e-05
13 *19:22 *40:36 0.000682144
14 *23:25 *40:27 0.000323812
15 *24:8 *40:27 3.17634e-05
16 *24:14 *40:27 2.99716e-05
17 *26:12 *40:27 2.3529e-05
18 *33:10 *40:27 5.50049e-05
19 *34:14 *40:27 0
20 *39:18 *40:27 1.34354e-05
*RES
1 *168:X *40:10 42.8057 
2 *40:10 *40:14 21.815 
3 *40:14 *150:A 23 
4 *40:14 *40:27 39.3629 
5 *40:27 *152:B 23 
6 *40:10 *40:36 34.5129 
7 *40:36 *151:A2 23 
*END

*D_NET *41 0.00678705
*CONN
*I *151:B1 I *D sky130_fd_sc_hd__o31a_1
*I *152:C I *D sky130_fd_sc_hd__or4_1
*I *169:X O *D sky130_fd_sc_hd__buf_1
*CAP
1 *151:B1 0
2 *152:C 0
3 *169:X 0.00020336
4 *41:27 0.00101512
5 *41:16 0.000534609
6 *41:10 0.00175309
7 *19:22 *41:10 0
8 *19:22 *41:16 0.000555632
9 *19:22 *41:27 0
10 *23:6 *41:16 4.34745e-05
11 *23:14 *41:16 0.000617576
12 *35:12 *41:16 3.34247e-05
13 *39:12 *41:27 0.000654226
14 *39:31 *41:27 0.00137655
15 *40:10 *41:27 0
16 *40:36 *41:27 0
*RES
1 *169:X *41:10 41.2314 
2 *41:10 *41:16 28.9821 
3 *41:16 *152:C 23 
4 *41:10 *41:27 42.3221 
5 *41:27 *151:B1 23 
*END

*D_NET *42 0.0010963
*CONN
*I *155:A I *D sky130_fd_sc_hd__xor2_1
*I *170:X O *D sky130_fd_sc_hd__clkbuf_1
*CAP
1 *155:A 0
2 *170:X 0.000517695
3 *42:10 0.000517695
4 *19:22 *42:10 2.22183e-05
5 *23:14 *42:10 3.8696e-05
*RES
1 *170:X *42:10 45.1671 
2 *42:10 *155:A 38 
*END

*D_NET *43 0.00264136
*CONN
*I *178:A I *D sky130_fd_sc_hd__buf_2
*I *162:X O *D sky130_fd_sc_hd__clkbuf_1
*CAP
1 *178:A 0
2 *162:X 0
3 *43:10 0.000683749
4 *43:6 0.000683749
5 *22:12 *43:10 0.000139203
6 *25:14 *43:10 0
7 *25:25 *43:10 0.000863955
8 *27:14 *43:10 0.000270706
9 *29:12 *43:10 0
*RES
1 *162:X *43:6 38 
2 *43:6 *43:10 33.8086 
3 *43:10 *178:A 23 
*END
