*SPEF "ieee 1481-1999"
*DESIGN "twos_complement"
*DATE "14:12:27 Saturday April 26, 2025"
*VENDOR "The OpenROAD Project"
*PROGRAM "OpenROAD"
*VERSION "b16bda7e82721d10566ff7e2b68f1ff0be9f9e38"
*DESIGN_FLOW "NAME_SCOPE LOCAL" "PIN_CAP NONE"
*DIVIDER /
*DELIMITER :
*BUS_DELIMITER []
*T_UNIT 1 NS
*C_UNIT 1 PF
*R_UNIT 1 OHM
*L_UNIT 1 HENRY

*NAME_MAP
*3 in[0]
*4 in[1]
*5 in[2]
*6 in[3]
*7 in[4]
*8 in[5]
*9 in[6]
*10 in[7]
*11 out[0]
*12 out[1]
*13 out[2]
*14 out[3]
*15 out[4]
*16 out[5]
*17 out[6]
*18 out[7]
*19 _00_
*20 _01_
*21 _02_
*22 _03_
*23 _04_
*24 _05_
*25 _06_
*26 _07_
*27 _08_
*28 net1
*29 net10
*30 net11
*31 net12
*32 net13
*33 net14
*34 net15
*35 net16
*36 net2
*37 net3
*38 net4
*39 net5
*40 net6
*41 net7
*42 net8
*43 net9
*44 FILLER_0_0_21
*45 FILLER_0_0_27
*46 FILLER_0_0_29
*47 FILLER_0_0_37
*48 FILLER_0_0_9
*49 FILLER_0_10_20
*50 FILLER_0_10_29
*51 FILLER_0_10_35
*52 FILLER_0_10_43
*53 FILLER_0_10_6
*54 FILLER_0_11_18
*55 FILLER_0_11_30
*56 FILLER_0_11_42
*57 FILLER_0_11_6
*58 FILLER_0_12_13
*59 FILLER_0_12_23
*60 FILLER_0_12_27
*61 FILLER_0_12_35
*62 FILLER_0_12_39
*63 FILLER_0_1_15
*64 FILLER_0_1_23
*65 FILLER_0_1_3
*66 FILLER_0_1_31
*67 FILLER_0_1_38
*68 FILLER_0_1_46
*69 FILLER_0_2_15
*70 FILLER_0_2_27
*71 FILLER_0_2_29
*72 FILLER_0_2_3
*73 FILLER_0_2_37
*74 FILLER_0_2_43
*75 FILLER_0_2_47
*76 FILLER_0_3_18
*77 FILLER_0_3_24
*78 FILLER_0_3_38
*79 FILLER_0_3_6
*80 FILLER_0_4_15
*81 FILLER_0_4_27
*82 FILLER_0_4_29
*83 FILLER_0_4_3
*84 FILLER_0_4_41
*85 FILLER_0_4_47
*86 FILLER_0_5_18
*87 FILLER_0_5_30
*88 FILLER_0_5_38
*89 FILLER_0_5_43
*90 FILLER_0_5_6
*91 FILLER_0_6_14
*92 FILLER_0_6_26
*93 FILLER_0_6_29
*94 FILLER_0_6_3
*95 FILLER_0_6_41
*96 FILLER_0_6_47
*97 FILLER_0_7_15
*98 FILLER_0_7_27
*99 FILLER_0_7_3
*100 FILLER_0_7_35
*101 FILLER_0_7_47
*102 FILLER_0_8_17
*103 FILLER_0_8_25
*104 FILLER_0_8_29
*105 FILLER_0_8_41
*106 FILLER_0_8_6
*107 FILLER_0_9_11
*108 FILLER_0_9_16
*109 FILLER_0_9_28
*110 FILLER_0_9_3
*111 FILLER_0_9_35
*112 FILLER_0_9_47
*113 PHY_EDGE_ROW_0_Left_13
*114 PHY_EDGE_ROW_0_Right_0
*115 PHY_EDGE_ROW_10_Left_23
*116 PHY_EDGE_ROW_10_Right_10
*117 PHY_EDGE_ROW_11_Left_24
*118 PHY_EDGE_ROW_11_Right_11
*119 PHY_EDGE_ROW_12_Left_25
*120 PHY_EDGE_ROW_12_Right_12
*121 PHY_EDGE_ROW_1_Left_14
*122 PHY_EDGE_ROW_1_Right_1
*123 PHY_EDGE_ROW_2_Left_15
*124 PHY_EDGE_ROW_2_Right_2
*125 PHY_EDGE_ROW_3_Left_16
*126 PHY_EDGE_ROW_3_Right_3
*127 PHY_EDGE_ROW_4_Left_17
*128 PHY_EDGE_ROW_4_Right_4
*129 PHY_EDGE_ROW_5_Left_18
*130 PHY_EDGE_ROW_5_Right_5
*131 PHY_EDGE_ROW_6_Left_19
*132 PHY_EDGE_ROW_6_Right_6
*133 PHY_EDGE_ROW_7_Left_20
*134 PHY_EDGE_ROW_7_Right_7
*135 PHY_EDGE_ROW_8_Left_21
*136 PHY_EDGE_ROW_8_Right_8
*137 PHY_EDGE_ROW_9_Left_22
*138 PHY_EDGE_ROW_9_Right_9
*139 TAP_TAPCELL_ROW_0_26
*140 TAP_TAPCELL_ROW_10_31
*141 TAP_TAPCELL_ROW_12_32
*142 TAP_TAPCELL_ROW_2_27
*143 TAP_TAPCELL_ROW_4_28
*144 TAP_TAPCELL_ROW_6_29
*145 TAP_TAPCELL_ROW_8_30
*146 _09_
*147 _10_
*148 _11_
*149 _12_
*150 _13_
*151 _14_
*152 _15_
*153 _16_
*154 _17_
*155 _18_
*156 _19_
*157 _20_
*158 _21_
*159 _22_
*160 _23_
*161 _24_
*162 _25_
*163 input1
*164 input2
*165 input3
*166 input4
*167 input5
*168 input6
*169 input7
*170 input8
*171 output10
*172 output11
*173 output12
*174 output13
*175 output14
*176 output15
*177 output16
*178 output9

*PORTS
in[0] I
in[1] I
in[2] I
in[3] I
in[4] I
in[5] I
in[6] I
in[7] I
out[0] O
out[1] O
out[2] O
out[3] O
out[4] O
out[5] O
out[6] O
out[7] O

*D_NET *3 0.000986291
*CONN
*P in[0] I
*I *163:A I *D sky130_fd_sc_hd__dlymetal6s2s_1
*CAP
1 in[0] 0.000493145
2 *163:A 0.000493145
3 *163:A *164:A 0
*RES
1 in[0] *163:A 9.94677 
*END

*D_NET *4 0.000708939
*CONN
*P in[1] I
*I *164:A I *D sky130_fd_sc_hd__buf_1
*CAP
1 in[1] 0.00035447
2 *164:A 0.00035447
3 *164:A *165:A 0
4 *163:A *164:A 0
*RES
1 in[1] *164:A 8.3643 
*END

*D_NET *5 0.000531065
*CONN
*P in[2] I
*I *165:A I *D sky130_fd_sc_hd__buf_1
*CAP
1 in[2] 0.000265532
2 *165:A 0.000265532
3 *165:A *166:A 0
4 *164:A *165:A 0
*RES
1 in[2] *165:A 6.8343 
*END

*D_NET *6 0.000645774
*CONN
*P in[3] I
*I *166:A I *D sky130_fd_sc_hd__clkbuf_1
*CAP
1 in[3] 0.000322887
2 *166:A 0.000322887
3 *166:A *167:A 0
4 *166:A *39:31 0
5 *165:A *166:A 0
*RES
1 in[3] *166:A 7.8543 
*END

*D_NET *7 0.0005615
*CONN
*P in[4] I
*I *167:A I *D sky130_fd_sc_hd__buf_1
*CAP
1 in[4] 0.00028075
2 *167:A 0.00028075
3 *167:A *168:A 0
4 *167:A *39:31 0
5 *166:A *167:A 0
*RES
1 in[4] *167:A 7.0893 
*END

*D_NET *8 0.000666425
*CONN
*P in[5] I
*I *168:A I *D sky130_fd_sc_hd__buf_1
*CAP
1 in[5] 0.000333212
2 *168:A 0.000333212
3 *168:A *152:A 0
4 *168:A *169:A 0
5 *167:A *168:A 0
*RES
1 in[5] *168:A 8.1093 
*END

*D_NET *9 0.000523624
*CONN
*P in[6] I
*I *169:A I *D sky130_fd_sc_hd__buf_1
*CAP
1 in[6] 0.000261812
2 *169:A 0.000261812
3 *169:A *170:A 0
4 *168:A *169:A 0
*RES
1 in[6] *169:A 6.8343 
*END

*D_NET *10 0.00115517
*CONN
*P in[7] I
*I *170:A I *D sky130_fd_sc_hd__clkbuf_1
*CAP
1 in[7] 0.000577586
2 *170:A 0.000577586
3 *169:A *170:A 0
*RES
1 in[7] *170:A 10.6316 
*END

*D_NET *11 0.00109227
*CONN
*P out[0] O
*I *178:X O *D sky130_fd_sc_hd__buf_2
*CAP
1 out[0] 0.000546133
2 *178:X 0.000546133
3 out[0] out[1] 0
*RES
1 *178:X out[0] 9.66983 
*END

*D_NET *12 0.000411239
*CONN
*P out[1] O
*I *171:X O *D sky130_fd_sc_hd__buf_2
*CAP
1 out[1] 0.00020562
2 *171:X 0.00020562
3 out[1] out[2] 0
4 out[0] out[1] 0
*RES
1 *171:X out[1] 4.84677 
*END

*D_NET *13 0.000413408
*CONN
*P out[2] O
*I *172:X O *D sky130_fd_sc_hd__buf_2
*CAP
1 out[2] 0.000200848
2 *172:X 0.000200848
3 out[2] out[3] 0
4 out[2] *171:A 1.17114e-05
5 out[1] out[2] 0
*RES
1 *172:X out[2] 4.84677 
*END

*D_NET *14 0.000556923
*CONN
*P out[3] O
*I *173:X O *D sky130_fd_sc_hd__buf_2
*CAP
1 out[3] 0.000248117
2 *173:X 0.000248117
3 out[3] out[4] 0
4 out[3] *171:A 6.06899e-05
5 out[2] out[3] 0
*RES
1 *173:X out[3] 5.86677 
*END

*D_NET *15 0.000410041
*CONN
*P out[4] O
*I *174:X O *D sky130_fd_sc_hd__buf_2
*CAP
1 out[4] 0.00020502
2 *174:X 0.00020502
3 out[4] out[5] 0
4 out[4] *159:A 0
5 out[3] out[4] 0
*RES
1 *174:X out[4] 4.84677 
*END

*D_NET *16 0.000540837
*CONN
*P out[5] O
*I *175:X O *D sky130_fd_sc_hd__buf_2
*CAP
1 out[5] 0.000270419
2 *175:X 0.000270419
3 out[5] out[6] 0
4 out[5] *159:A 0
5 out[4] out[5] 0
*RES
1 *175:X out[5] 5.86677 
*END

*D_NET *17 0.000725463
*CONN
*P out[6] O
*I *176:X O *D sky130_fd_sc_hd__buf_2
*CAP
1 out[6] 0.000362731
2 *176:X 0.000362731
3 out[6] out[7] 0
4 out[5] out[6] 0
*RES
1 *176:X out[6] 5.19637 
*END

*D_NET *18 0.000971234
*CONN
*P out[7] O
*I *177:X O *D sky130_fd_sc_hd__clkbuf_4
*CAP
1 out[7] 0.000485617
2 *177:X 0.000485617
3 out[6] out[7] 0
*RES
1 *177:X out[7] 10.1435 
*END

*D_NET *19 0.00682695
*CONN
*I *161:B1_N I *D sky130_fd_sc_hd__a21boi_1
*I *151:A3 I *D sky130_fd_sc_hd__o31a_1
*I *148:B I *D sky130_fd_sc_hd__and2_1
*I *147:B I *D sky130_fd_sc_hd__nor2_1
*I *152:D I *D sky130_fd_sc_hd__or4_1
*I *146:X O *D sky130_fd_sc_hd__or4_2
*CAP
1 *161:B1_N 0.000346702
2 *151:A3 2.18087e-05
3 *148:B 3.38355e-05
4 *147:B 0
5 *152:D 0.00117898
6 *146:X 0
7 *19:35 0.000169866
8 *19:12 0.0013655
9 *19:10 0.000342062
10 *19:4 0.000616468
11 *148:B *148:A 0.000238404
12 *148:B *153:A_N 0.000226988
13 *151:A3 *37:6 0.000123589
14 *151:A3 *39:31 8.696e-05
15 *151:A3 *39:38 2.05056e-05
16 *152:D *151:A2 0.000641865
17 *152:D *151:B1 0
18 *152:D *152:C 0.000496561
19 *152:D *155:A 2.24423e-05
20 *152:D *155:B 0
21 *152:D *177:A 0.000244198
22 *152:D *20:12 0
23 *152:D *38:16 0
24 *152:D *40:10 2.68016e-05
25 *152:D *41:10 0
26 *161:B1_N *161:A1 1.47347e-05
27 *161:B1_N *28:8 0.000193563
28 *161:B1_N *28:19 0.000227261
29 *19:10 *146:B 0
30 *19:10 *28:8 8.48545e-05
31 *19:12 *151:A2 6.29385e-06
32 *19:12 *38:16 0
33 *19:12 *39:31 0
34 *19:35 *148:A 4.77757e-05
35 *19:35 *153:A_N 4.89295e-05
*RES
1 *146:X *19:4 1.6 
2 *19:4 *19:10 5.96 
3 *19:10 *19:12 0.7425 
4 *19:12 *152:D 28.8825 
5 *19:12 *19:35 3.8225 
6 *19:35 *147:B 1.6 
7 *19:35 *148:B 3.775 
8 *19:10 *151:A3 4.74 
9 *19:4 *161:B1_N 6.46 
*END

*D_NET *20 0.00331497
*CONN
*I *150:B I *D sky130_fd_sc_hd__xnor2_1
*I *149:A I *D sky130_fd_sc_hd__nor2_1
*I *147:Y O *D sky130_fd_sc_hd__nor2_1
*CAP
1 *150:B 0.000332838
2 *149:A 0.000110066
3 *147:Y 0.000443639
4 *20:12 0.000886543
5 *149:A *149:B 0.000270713
6 *149:A *174:A 0.000308229
7 *150:B *149:B 0.0001249
8 *150:B *154:A 0.000212322
9 *150:B *174:A 0.000228149
10 *20:12 *149:B 0.000152178
11 *20:12 *153:A_N 8.48512e-05
12 *20:12 *38:16 0.000160544
13 *152:D *20:12 0
*RES
1 *147:Y *20:12 14.405 
2 *20:12 *149:A 5.17 
3 *20:12 *150:B 13.745 
*END

*D_NET *21 0.00186727
*CONN
*I *149:B I *D sky130_fd_sc_hd__nor2_1
*I *148:X O *D sky130_fd_sc_hd__and2_1
*CAP
1 *149:B 0.000476006
2 *148:X 0.000476006
3 *149:B *154:A 0
4 *149:B *36:37 7.37282e-05
5 *149:B *38:16 0.00029374
6 *149:A *149:B 0.000270713
7 *150:B *149:B 0.0001249
8 *20:12 *149:B 0.000152178
*RES
1 *148:X *149:B 18.51 
*END

*D_NET *22 0.00434188
*CONN
*I *153:A_N I *D sky130_fd_sc_hd__and2b_1
*I *151:X O *D sky130_fd_sc_hd__o31a_1
*CAP
1 *153:A_N 0.000707505
2 *151:X 0.000707505
3 *153:A_N *148:A 2.99797e-05
4 *153:A_N *158:A1 3.66286e-05
5 *153:A_N *158:B1 2.03356e-05
6 *153:A_N *159:B 3.47498e-05
7 *153:A_N *160:A 0.000854218
8 *153:A_N *161:A2 5.02217e-05
9 *153:A_N *172:A 0.000158965
10 *153:A_N *176:A 0.00102942
11 *153:A_N *178:A 0.000142011
12 *153:A_N *36:37 0.000160641
13 *153:A_N *39:38 4.89295e-05
14 *148:B *153:A_N 0.000226988
15 *19:35 *153:A_N 4.89295e-05
16 *20:12 *153:A_N 8.48512e-05
*RES
1 *151:X *153:A_N 28.425 
*END

*D_NET *23 0.00233033
*CONN
*I *153:B I *D sky130_fd_sc_hd__and2b_1
*I *155:B I *D sky130_fd_sc_hd__xor2_1
*I *152:X O *D sky130_fd_sc_hd__or4_1
*CAP
1 *153:B 7.63312e-05
2 *155:B 0.000402871
3 *152:X 0.000117149
4 *23:6 0.000596351
5 *153:B *152:A 3.67779e-05
6 *153:B *152:B 0.00027064
7 *153:B *159:B 0.000166346
8 *153:B *176:A 1.52862e-05
9 *155:B *152:C 0.000543682
10 *155:B *155:A 3.11927e-05
11 *23:6 *152:C 3.83041e-05
12 *23:6 *177:A 3.54025e-05
13 *152:D *155:B 0
*RES
1 *152:X *23:6 3.085 
2 *23:6 *155:B 11.405 
3 *23:6 *153:B 8.765 
*END

*D_NET *24 0.0030997
*CONN
*I *154:A I *D sky130_fd_sc_hd__clkbuf_1
*I *153:X O *D sky130_fd_sc_hd__and2b_1
*CAP
1 *154:A 0.000922304
2 *153:X 0.000922304
3 *154:A *152:B 6.01664e-05
4 *154:A *159:B 0
5 *154:A *162:A 0.000181557
6 *154:A *175:A 2.75145e-05
7 *154:A *176:A 0.000304817
8 *154:A *28:27 4.82863e-05
9 *154:A *28:33 0.000392856
10 *154:A *36:37 2.75707e-05
11 *149:B *154:A 0
12 *150:B *154:A 0.000212322
*RES
1 *153:X *154:A 27.075 
*END

*D_NET *25 0.00364846
*CONN
*I *159:A I *D sky130_fd_sc_hd__and2_1
*I *161:A2 I *D sky130_fd_sc_hd__a21boi_1
*I *157:X O *D sky130_fd_sc_hd__or3_1
*CAP
1 *159:A 0.00077069
2 *161:A2 0.000285006
3 *157:X 3.92715e-05
4 *25:6 0.00109497
5 *159:A *160:A 0.000220404
6 *159:A *171:A 0.000178442
7 *159:A *174:A 4.49498e-05
8 *159:A *176:A 1.03323e-05
9 *159:A *178:A 0.000720456
10 *161:A2 *159:B 7.23602e-05
11 *161:A2 *172:A 2.23407e-05
12 *161:A2 *173:A 0.000124624
13 *161:A2 *178:A 0
14 *25:6 *176:A 1.4399e-05
15 out[4] *159:A 0
16 out[5] *159:A 0
17 *153:A_N *161:A2 5.02217e-05
*RES
1 *157:X *25:6 2.05 
2 *25:6 *161:A2 11.51 
3 *25:6 *159:A 22.925 
*END

*D_NET *26 0.00283853
*CONN
*I *159:B I *D sky130_fd_sc_hd__and2_1
*I *158:Y O *D sky130_fd_sc_hd__o21ai_1
*CAP
1 *159:B 0.000644472
2 *158:Y 0.000644472
3 *159:B *152:A 2.75145e-05
4 *159:B *152:B 2.23407e-05
5 *159:B *156:A 3.38895e-05
6 *159:B *156:B 9.26907e-06
7 *159:B *162:A 0.00013477
8 *159:B *172:A 0.000360611
9 *159:B *176:A 0.000687732
10 *159:B *28:33 0
11 *153:A_N *159:B 3.47498e-05
12 *153:B *159:B 0.000166346
13 *154:A *159:B 0
14 *161:A2 *159:B 7.23602e-05
*RES
1 *158:Y *159:B 25.29 
*END

*D_NET *27 0.00376029
*CONN
*I *160:A I *D sky130_fd_sc_hd__clkbuf_1
*I *159:X O *D sky130_fd_sc_hd__and2_1
*CAP
1 *160:A 0.000654222
2 *159:X 0.000654222
3 *160:A *172:A 0.000644459
4 *160:A *173:A 0.000229536
5 *160:A *176:A 7.26629e-05
6 *160:A *178:A 0.000251159
7 *160:A *38:16 0.000179411
8 *153:A_N *160:A 0.000854218
9 *159:A *160:A 0.000220404
*RES
1 *159:X *160:A 27.27 
*END

*D_NET *28 0.00502389
*CONN
*I *158:A2 I *D sky130_fd_sc_hd__o21ai_1
*I *157:C I *D sky130_fd_sc_hd__or3_1
*I *156:B I *D sky130_fd_sc_hd__xor2_1
*I *162:A I *D sky130_fd_sc_hd__clkbuf_1
*I *146:D I *D sky130_fd_sc_hd__or4_2
*I *163:X O *D sky130_fd_sc_hd__dlymetal6s2s_1
*CAP
1 *158:A2 0.000117093
2 *157:C 0
3 *156:B 2.45508e-06
4 *162:A 0.000398462
5 *146:D 0
6 *163:X 0.000336314
7 *28:33 0.000554084
8 *28:27 0.000320035
9 *28:19 0.000492043
10 *28:8 0.000544396
11 *158:A2 *158:B1 4.66108e-05
12 *158:A2 *37:10 0.000120655
13 *28:8 *146:A 4.01749e-05
14 *28:8 *146:C 4.66108e-05
15 *28:19 *146:A 5.83121e-06
16 *28:19 *161:A1 0.000134314
17 *28:19 *36:27 0.000103966
18 *28:19 *38:16 0
19 *28:27 *157:A 4.92014e-05
20 *28:27 *176:A 1.19928e-05
21 *28:27 *36:27 3.9442e-05
22 *28:27 *36:37 7.63125e-05
23 *28:27 *38:16 0
24 *28:33 *156:A 0.000270633
25 *28:33 *157:A 9.50342e-06
26 *28:33 *173:A 3.13459e-05
27 *154:A *162:A 0.000181557
28 *154:A *28:27 4.82863e-05
29 *154:A *28:33 0.000392856
30 *159:B *156:B 9.26907e-06
31 *159:B *162:A 0.00013477
32 *159:B *28:33 0
33 *161:B1_N *28:8 0.000193563
34 *161:B1_N *28:19 0.000227261
35 *19:10 *28:8 8.48545e-05
*RES
1 *163:X *28:8 7.585 
2 *28:8 *146:D 1.6 
3 *28:8 *28:19 7.34 
4 *28:19 *28:27 5.555 
5 *28:27 *28:33 7.0175 
6 *28:33 *162:A 11.3025 
7 *28:33 *156:B 3.8325 
8 *28:27 *157:C 1.6 
9 *28:19 *158:A2 5.085 
*END

*D_NET *29 0.00184467
*CONN
*I *171:A I *D sky130_fd_sc_hd__buf_2
*I *156:X O *D sky130_fd_sc_hd__xor2_1
*CAP
1 *171:A 0.000796914
2 *156:X 0.000796914
3 *171:A *178:A 0
4 out[2] *171:A 1.17114e-05
5 out[3] *171:A 6.06899e-05
6 *159:A *171:A 0.000178442
*RES
1 *156:X *171:A 21.06 
*END

*D_NET *30 0.00316062
*CONN
*I *172:A I *D sky130_fd_sc_hd__buf_2
*I *160:X O *D sky130_fd_sc_hd__clkbuf_1
*CAP
1 *172:A 0.000780696
2 *160:X 0.000780696
3 *172:A *156:A 2.23485e-05
4 *172:A *158:B1 2.75229e-05
5 *172:A *173:A 0.000362979
6 *153:A_N *172:A 0.000158965
7 *159:B *172:A 0.000360611
8 *160:A *172:A 0.000644459
9 *161:A2 *172:A 2.23407e-05
*RES
1 *160:X *172:A 21.765 
*END

*D_NET *31 0.00216762
*CONN
*I *173:A I *D sky130_fd_sc_hd__buf_2
*I *161:Y O *D sky130_fd_sc_hd__a21boi_1
*CAP
1 *173:A 0.000480558
2 *161:Y 0.000480558
3 *173:A *156:A 0.000141592
4 *173:A *157:A 0.000206123
5 *173:A *36:27 0.000110307
6 *160:A *173:A 0.000229536
7 *161:A2 *173:A 0.000124624
8 *172:A *173:A 0.000362979
9 *28:33 *173:A 3.13459e-05
*RES
1 *161:Y *173:A 19.2 
*END

*D_NET *32 0.00266699
*CONN
*I *174:A I *D sky130_fd_sc_hd__buf_2
*I *149:Y O *D sky130_fd_sc_hd__nor2_1
*CAP
1 *174:A 0.00104283
2 *149:Y 0.00104283
3 *149:A *174:A 0.000308229
4 *150:B *174:A 0.000228149
5 *159:A *174:A 4.49498e-05
*RES
1 *149:Y *174:A 19.725 
*END

*D_NET *33 0.000789578
*CONN
*I *175:A I *D sky130_fd_sc_hd__buf_2
*I *150:Y O *D sky130_fd_sc_hd__xnor2_1
*CAP
1 *175:A 0.000356889
2 *150:Y 0.000356889
3 *175:A *152:B 4.82863e-05
4 *154:A *175:A 2.75145e-05
*RES
1 *150:Y *175:A 8.51 
*END

*D_NET *34 0.00457081
*CONN
*I *176:A I *D sky130_fd_sc_hd__buf_2
*I *154:X O *D sky130_fd_sc_hd__clkbuf_1
*CAP
1 *176:A 0.00105122
2 *154:X 0.00105122
3 *176:A *152:A 0.000116151
4 *176:A *152:B 0
5 *176:A *156:A 4.66108e-05
6 *176:A *177:A 0
7 *176:A *36:37 0.00015896
8 *153:A_N *176:A 0.00102942
9 *153:B *176:A 1.52862e-05
10 *154:A *176:A 0.000304817
11 *159:A *176:A 1.03323e-05
12 *159:B *176:A 0.000687732
13 *160:A *176:A 7.26629e-05
14 *25:6 *176:A 1.4399e-05
15 *28:27 *176:A 1.19928e-05
*RES
1 *154:X *176:A 33.555 
*END

*D_NET *35 0.00148784
*CONN
*I *177:A I *D sky130_fd_sc_hd__clkbuf_4
*I *155:X O *D sky130_fd_sc_hd__xor2_1
*CAP
1 *177:A 0.000588659
2 *155:X 0.000588659
3 *177:A *152:C 3.09179e-05
4 *152:D *177:A 0.000244198
5 *176:A *177:A 0
6 *23:6 *177:A 3.54025e-05
*RES
1 *155:X *177:A 16.905 
*END

*D_NET *36 0.00461818
*CONN
*I *158:A1 I *D sky130_fd_sc_hd__o21ai_1
*I *156:A I *D sky130_fd_sc_hd__xor2_1
*I *157:B I *D sky130_fd_sc_hd__or3_1
*I *146:C I *D sky130_fd_sc_hd__or4_2
*I *164:X O *D sky130_fd_sc_hd__buf_1
*CAP
1 *158:A1 1.38647e-05
2 *156:A 0.000170114
3 *157:B 0
4 *146:C 5.60976e-05
5 *164:X 0.000526872
6 *36:37 0.000419805
7 *36:27 0.000651794
8 *36:6 0.000971208
9 *146:C *146:A 4.66108e-05
10 *146:C *146:B 0.000112123
11 *146:C *38:16 0.000112123
12 *158:A1 *37:10 2.49909e-05
13 *36:27 *157:A 5.23362e-05
14 *36:37 *148:A 4.82919e-05
15 *36:37 *157:A 0
16 *36:37 *37:10 6.27029e-05
17 *36:37 *38:16 0
18 *149:B *36:37 7.37282e-05
19 *153:A_N *158:A1 3.66286e-05
20 *153:A_N *36:37 0.000160641
21 *154:A *36:37 2.75707e-05
22 *159:B *156:A 3.38895e-05
23 *172:A *156:A 2.23485e-05
24 *173:A *156:A 0.000141592
25 *173:A *36:27 0.000110307
26 *176:A *156:A 4.66108e-05
27 *176:A *36:37 0.00015896
28 *28:8 *146:C 4.66108e-05
29 *28:19 *36:27 0.000103966
30 *28:27 *36:27 3.9442e-05
31 *28:27 *36:37 7.63125e-05
32 *28:33 *156:A 0.000270633
*RES
1 *164:X *36:6 7.225 
2 *36:6 *146:C 7.43 
3 *36:6 *36:27 10.12 
4 *36:27 *36:37 9.625 
5 *36:37 *157:B 1.6 
6 *36:37 *156:A 10.025 
7 *36:27 *158:A1 2.05 
*END

*D_NET *37 0.00339564
*CONN
*I *146:B I *D sky130_fd_sc_hd__or4_2
*I *158:B1 I *D sky130_fd_sc_hd__o21ai_1
*I *157:A I *D sky130_fd_sc_hd__or3_1
*I *165:X O *D sky130_fd_sc_hd__buf_1
*CAP
1 *146:B 0.00021039
2 *158:B1 7.95563e-05
3 *157:A 7.80124e-05
4 *165:X 0.000388458
5 *37:10 0.000354709
6 *37:6 0.000795989
7 *146:B *38:16 0.000110307
8 *37:6 *148:A 6.6364e-05
9 *37:6 *39:31 0.000154221
10 *37:6 *39:38 2.47149e-05
11 *37:10 *148:A 0.000277223
12 *146:C *146:B 0.000112123
13 *151:A3 *37:6 0.000123589
14 *153:A_N *158:B1 2.03356e-05
15 *158:A1 *37:10 2.49909e-05
16 *158:A2 *158:B1 4.66108e-05
17 *158:A2 *37:10 0.000120655
18 *172:A *158:B1 2.75229e-05
19 *173:A *157:A 0.000206123
20 *19:10 *146:B 0
21 *28:27 *157:A 4.92014e-05
22 *28:33 *157:A 9.50342e-06
23 *36:27 *157:A 5.23362e-05
24 *36:37 *157:A 0
25 *36:37 *37:10 6.27029e-05
*RES
1 *165:X *37:6 6.88 
2 *37:6 *37:10 4.26 
3 *37:10 *157:A 8 
4 *37:10 *158:B1 3.1 
5 *37:6 *146:B 9.785 
*END

*D_NET *38 0.00321936
*CONN
*I *161:A1 I *D sky130_fd_sc_hd__a21boi_1
*I *146:A I *D sky130_fd_sc_hd__or4_2
*I *166:X O *D sky130_fd_sc_hd__clkbuf_1
*CAP
1 *161:A1 0.000232943
2 *146:A 8.674e-05
3 *166:X 0.0007411
4 *38:16 0.00106078
5 *146:B *38:16 0.000110307
6 *146:C *146:A 4.66108e-05
7 *146:C *38:16 0.000112123
8 *149:B *38:16 0.00029374
9 *152:D *38:16 0
10 *160:A *38:16 0.000179411
11 *161:B1_N *161:A1 1.47347e-05
12 *19:12 *38:16 0
13 *20:12 *38:16 0.000160544
14 *28:8 *146:A 4.01749e-05
15 *28:19 *146:A 5.83121e-06
16 *28:19 *161:A1 0.000134314
17 *28:19 *38:16 0
18 *28:27 *38:16 0
19 *36:37 *38:16 0
*RES
1 *166:X *38:16 20.3 
2 *38:16 *146:A 3.1 
3 *38:16 *161:A1 5.86 
*END

*D_NET *39 0.00687709
*CONN
*I *148:A I *D sky130_fd_sc_hd__and2_1
*I *147:A I *D sky130_fd_sc_hd__nor2_1
*I *151:A1 I *D sky130_fd_sc_hd__o31a_1
*I *152:A I *D sky130_fd_sc_hd__or4_1
*I *167:X O *D sky130_fd_sc_hd__buf_1
*CAP
1 *148:A 7.46575e-05
2 *147:A 0
3 *151:A1 0
4 *152:A 0.00127728
5 *167:X 0
6 *39:38 0.000121991
7 *39:31 0.000619093
8 *39:6 0.00184904
9 *152:A *151:B1 0.000545256
10 *152:A *152:B 1.44259e-05
11 *39:31 *151:B1 0.00115154
12 *148:B *148:A 0.000238404
13 *151:A3 *39:31 8.696e-05
14 *151:A3 *39:38 2.05056e-05
15 *153:A_N *148:A 2.99797e-05
16 *153:A_N *39:38 4.89295e-05
17 *153:B *152:A 3.67779e-05
18 *159:B *152:A 2.75145e-05
19 *166:A *39:31 0
20 *167:A *39:31 0
21 *168:A *152:A 0
22 *176:A *152:A 0.000116151
23 *19:12 *39:31 0
24 *19:35 *148:A 4.77757e-05
25 *36:37 *148:A 4.82919e-05
26 *37:6 *148:A 6.6364e-05
27 *37:6 *39:31 0.000154221
28 *37:6 *39:38 2.47149e-05
29 *37:10 *148:A 0.000277223
*RES
1 *167:X *39:6 3.6 
2 *39:6 *152:A 25.66 
3 *39:6 *39:31 16.64 
4 *39:31 *151:A1 1.6 
5 *39:31 *39:38 1.14 
6 *39:38 *147:A 1.6 
7 *39:38 *148:A 5.515 
*END

*D_NET *40 0.00427296
*CONN
*I *151:A2 I *D sky130_fd_sc_hd__o31a_1
*I *152:B I *D sky130_fd_sc_hd__or4_1
*I *150:A I *D sky130_fd_sc_hd__xnor2_1
*I *168:X O *D sky130_fd_sc_hd__buf_1
*CAP
1 *151:A2 0.000654655
2 *152:B 0.000344542
3 *150:A 0
4 *168:X 0.000254838
5 *40:14 0.000681577
6 *40:10 0.00124653
7 *151:A2 *151:B1 0
8 *40:10 *151:B1 0
9 *152:A *152:B 1.44259e-05
10 *152:D *151:A2 0.000641865
11 *152:D *40:10 2.68016e-05
12 *153:B *152:B 0.00027064
13 *154:A *152:B 6.01664e-05
14 *159:B *152:B 2.23407e-05
15 *175:A *152:B 4.82863e-05
16 *176:A *152:B 0
17 *19:12 *151:A2 6.29385e-06
*RES
1 *168:X *40:10 7.08 
2 *40:10 *40:14 6.935 
3 *40:14 *150:A 1.6 
4 *40:14 *152:B 12.38 
5 *40:10 *151:A2 17.73 
*END

*D_NET *41 0.00563733
*CONN
*I *151:B1 I *D sky130_fd_sc_hd__o31a_1
*I *152:C I *D sky130_fd_sc_hd__or4_1
*I *169:X O *D sky130_fd_sc_hd__buf_1
*CAP
1 *151:B1 0.000816658
2 *152:C 0.000434834
3 *169:X 0.000164042
4 *41:10 0.00141553
5 *151:A2 *151:B1 0
6 *152:A *151:B1 0.000545256
7 *152:D *151:B1 0
8 *152:D *152:C 0.000496561
9 *152:D *41:10 0
10 *155:B *152:C 0.000543682
11 *177:A *152:C 3.09179e-05
12 *23:6 *152:C 3.83041e-05
13 *39:31 *151:B1 0.00115154
14 *40:10 *151:B1 0
*RES
1 *169:X *41:10 5.94 
2 *41:10 *152:C 13.725 
3 *41:10 *151:B1 23.385 
*END

*D_NET *42 0.00090973
*CONN
*I *155:A I *D sky130_fd_sc_hd__xor2_1
*I *170:X O *D sky130_fd_sc_hd__clkbuf_1
*CAP
1 *155:A 0.000428048
2 *170:X 0.000428048
3 *152:D *155:A 2.24423e-05
4 *155:B *155:A 3.11927e-05
*RES
1 *170:X *155:A 12.39 
*END

*D_NET *43 0.00214999
*CONN
*I *178:A I *D sky130_fd_sc_hd__buf_2
*I *162:X O *D sky130_fd_sc_hd__clkbuf_1
*CAP
1 *178:A 0.000518184
2 *162:X 0.000518184
3 *153:A_N *178:A 0.000142011
4 *159:A *178:A 0.000720456
5 *160:A *178:A 0.000251159
6 *161:A2 *178:A 0
7 *171:A *178:A 0
*RES
1 *162:X *178:A 20.82 
*END
