*SPEF "ieee 1481-1999"
*DESIGN "twos_complement"
*DATE "14:01:22 Saturday April 26, 2025"
*VENDOR "The OpenROAD Project"
*PROGRAM "OpenROAD"
*VERSION "b16bda7e82721d10566ff7e2b68f1ff0be9f9e38"
*DESIGN_FLOW "NAME_SCOPE LOCAL" "PIN_CAP NONE"
*DIVIDER /
*DELIMITER :
*BUS_DELIMITER []
*T_UNIT 1 NS
*C_UNIT 1 PF
*R_UNIT 1 OHM
*L_UNIT 1 HENRY

*NAME_MAP
*3 in[0]
*4 in[1]
*5 in[2]
*6 in[3]
*7 in[4]
*8 in[5]
*9 in[6]
*10 in[7]
*11 out[0]
*12 out[1]
*13 out[2]
*14 out[3]
*15 out[4]
*16 out[5]
*17 out[6]
*18 out[7]
*19 _00_
*20 _01_
*21 _02_
*22 _03_
*23 _04_
*24 _05_
*25 _06_
*26 _07_
*27 _08_
*28 net1
*29 net10
*30 net11
*31 net12
*32 net13
*33 net14
*34 net15
*35 net16
*36 net2
*37 net3
*38 net4
*39 net5
*40 net6
*41 net7
*42 net8
*43 net9
*44 FILLER_0_0_21
*45 FILLER_0_0_27
*46 FILLER_0_0_36
*47 FILLER_0_0_9
*48 FILLER_0_10_12
*49 FILLER_0_10_18
*50 FILLER_0_10_26
*51 FILLER_0_10_29
*52 FILLER_0_10_41
*53 FILLER_0_10_6
*54 FILLER_0_11_18
*55 FILLER_0_11_25
*56 FILLER_0_11_37
*57 FILLER_0_11_45
*58 FILLER_0_11_6
*59 FILLER_0_12_13
*60 FILLER_0_12_25
*61 FILLER_0_12_29
*62 FILLER_0_12_37
*63 FILLER_0_1_15
*64 FILLER_0_1_21
*65 FILLER_0_1_3
*66 FILLER_0_1_33
*67 FILLER_0_1_45
*68 FILLER_0_2_13
*69 FILLER_0_2_25
*70 FILLER_0_2_29
*71 FILLER_0_2_3
*72 FILLER_0_2_41
*73 FILLER_0_2_47
*74 FILLER_0_2_9
*75 FILLER_0_3_18
*76 FILLER_0_3_31
*77 FILLER_0_3_43
*78 FILLER_0_3_6
*79 FILLER_0_4_15
*80 FILLER_0_4_27
*81 FILLER_0_4_29
*82 FILLER_0_4_3
*83 FILLER_0_4_35
*84 FILLER_0_4_39
*85 FILLER_0_4_47
*86 FILLER_0_5_13
*87 FILLER_0_5_33
*88 FILLER_0_5_38
*89 FILLER_0_6_15
*90 FILLER_0_6_27
*91 FILLER_0_6_29
*92 FILLER_0_6_3
*93 FILLER_0_6_41
*94 FILLER_0_6_47
*95 FILLER_0_7_15
*96 FILLER_0_7_19
*97 FILLER_0_7_24
*98 FILLER_0_7_3
*99 FILLER_0_7_36
*100 FILLER_0_8_18
*101 FILLER_0_8_26
*102 FILLER_0_8_29
*103 FILLER_0_8_37
*104 FILLER_0_8_46
*105 FILLER_0_8_6
*106 FILLER_0_9_15
*107 FILLER_0_9_26
*108 FILLER_0_9_3
*109 FILLER_0_9_37
*110 FILLER_0_9_45
*111 PHY_EDGE_ROW_0_Left_13
*112 PHY_EDGE_ROW_0_Right_0
*113 PHY_EDGE_ROW_10_Left_23
*114 PHY_EDGE_ROW_10_Right_10
*115 PHY_EDGE_ROW_11_Left_24
*116 PHY_EDGE_ROW_11_Right_11
*117 PHY_EDGE_ROW_12_Left_25
*118 PHY_EDGE_ROW_12_Right_12
*119 PHY_EDGE_ROW_1_Left_14
*120 PHY_EDGE_ROW_1_Right_1
*121 PHY_EDGE_ROW_2_Left_15
*122 PHY_EDGE_ROW_2_Right_2
*123 PHY_EDGE_ROW_3_Left_16
*124 PHY_EDGE_ROW_3_Right_3
*125 PHY_EDGE_ROW_4_Left_17
*126 PHY_EDGE_ROW_4_Right_4
*127 PHY_EDGE_ROW_5_Left_18
*128 PHY_EDGE_ROW_5_Right_5
*129 PHY_EDGE_ROW_6_Left_19
*130 PHY_EDGE_ROW_6_Right_6
*131 PHY_EDGE_ROW_7_Left_20
*132 PHY_EDGE_ROW_7_Right_7
*133 PHY_EDGE_ROW_8_Left_21
*134 PHY_EDGE_ROW_8_Right_8
*135 PHY_EDGE_ROW_9_Left_22
*136 PHY_EDGE_ROW_9_Right_9
*137 TAP_TAPCELL_ROW_0_26
*138 TAP_TAPCELL_ROW_10_31
*139 TAP_TAPCELL_ROW_12_32
*140 TAP_TAPCELL_ROW_2_27
*141 TAP_TAPCELL_ROW_4_28
*142 TAP_TAPCELL_ROW_6_29
*143 TAP_TAPCELL_ROW_8_30
*144 _09_
*145 _10_
*146 _11_
*147 _12_
*148 _13_
*149 _14_
*150 _15_
*151 _16_
*152 _17_
*153 _18_
*154 _19_
*155 _20_
*156 _21_
*157 _22_
*158 _23_
*159 _24_
*160 _25_
*161 input1
*162 input2
*163 input3
*164 input4
*165 input5
*166 input6
*167 input7
*168 input8
*169 output10
*170 output11
*171 output12
*172 output13
*173 output14
*174 output15
*175 output16
*176 output9

*PORTS
in[0] I
in[1] I
in[2] I
in[3] I
in[4] I
in[5] I
in[6] I
in[7] I
out[0] O
out[1] O
out[2] O
out[3] O
out[4] O
out[5] O
out[6] O
out[7] O

*D_NET *3 0.00111812
*CONN
*P in[0] I
*I *161:A I *D sky130_fd_sc_hd__dlymetal6s2s_1
*CAP
1 in[0] 0.00055906
2 *161:A 0
3 *3:11 0.00055906
4 *3:11 *4:17 0
*RES
1 in[0] *3:11 31.1218 
2 *3:11 *161:A 23 
*END

*D_NET *4 0.000815582
*CONN
*P in[1] I
*I *162:A I *D sky130_fd_sc_hd__buf_1
*CAP
1 in[1] 0.000407791
2 *162:A 0
3 *4:17 0.000407791
4 *4:17 *163:A 0
5 *3:11 *4:17 0
*RES
1 in[1] *4:17 28.9191 
2 *4:17 *162:A 23 
*END

*D_NET *5 0.000615123
*CONN
*P in[2] I
*I *163:A I *D sky130_fd_sc_hd__buf_1
*CAP
1 in[2] 0.000307562
2 *163:A 0.000307562
3 *163:A *6:17 0
4 *4:17 *163:A 0
*RES
1 in[2] *163:A 49.8062 
*END

*D_NET *6 0.000742726
*CONN
*P in[3] I
*I *164:A I *D sky130_fd_sc_hd__clkbuf_1
*CAP
1 in[3] 0.000371363
2 *164:A 0
3 *6:17 0.000371363
4 *6:17 *7:17 0
5 *6:17 *37:10 0
6 *163:A *6:17 0
*RES
1 in[3] *6:17 28.2148 
2 *6:17 *164:A 23 
*END

*D_NET *7 0.000650175
*CONN
*P in[4] I
*I *165:A I *D sky130_fd_sc_hd__buf_1
*CAP
1 in[4] 0.000325087
2 *165:A 0
3 *7:17 0.000325087
4 *7:17 *8:17 0
5 *7:17 *37:16 0
6 *6:17 *7:17 0
*RES
1 in[4] *7:17 27.1584 
2 *7:17 *165:A 23 
*END

*D_NET *8 0.000761607
*CONN
*P in[5] I
*I *166:A I *D sky130_fd_sc_hd__buf_1
*CAP
1 in[5] 0.000380803
2 *166:A 0
3 *8:17 0.000380803
4 *8:17 *167:A 0
5 *7:17 *8:17 0
*RES
1 in[5] *8:17 28.567 
2 *8:17 *166:A 23 
*END

*D_NET *9 0.000603153
*CONN
*P in[6] I
*I *167:A I *D sky130_fd_sc_hd__clkbuf_1
*CAP
1 in[6] 0.000301577
2 *167:A 0.000301577
3 *167:A *10:11 0
4 *8:17 *167:A 0
*RES
1 in[6] *167:A 49.8062 
*END

*D_NET *10 0.00130197
*CONN
*P in[7] I
*I *168:A I *D sky130_fd_sc_hd__buf_1
*CAP
1 in[7] 0.000650983
2 *168:A 0
3 *10:11 0.000650983
4 *167:A *10:11 0
*RES
1 in[7] *10:11 32.0837 
2 *10:11 *168:A 23 
*END

*D_NET *11 0.00123536
*CONN
*P out[0] O
*I *176:X O *D sky130_fd_sc_hd__buf_2
*CAP
1 out[0] 0.00029892
2 *176:X 0.000318757
3 *11:8 0.000617678
4 out[0] out[1] 0
*RES
1 *176:X *11:8 44.6596 
2 *11:8 out[0] 9.10133 
*END

*D_NET *12 0.00046494
*CONN
*P out[1] O
*I *169:X O *D sky130_fd_sc_hd__buf_2
*CAP
1 out[1] 0.00023247
2 *169:X 0.00023247
3 out[1] out[2] 0
4 out[0] out[1] 0
*RES
1 *169:X out[1] 47.0789 
*END

*D_NET *13 0.000477704
*CONN
*P out[2] O
*I *170:X O *D sky130_fd_sc_hd__buf_2
*CAP
1 out[2] 0.000226501
2 *170:X 0.000226501
3 out[2] out[3] 0
4 out[2] *25:25 2.47015e-05
5 out[1] out[2] 0
*RES
1 *170:X out[2] 47.0789 
*END

*D_NET *14 0.000523207
*CONN
*P out[3] O
*I *171:X O *D sky130_fd_sc_hd__buf_2
*CAP
1 out[3] 0.000235034
2 *171:X 0.000235034
3 out[3] out[4] 0
4 out[3] *25:10 5.31385e-05
5 out[2] out[3] 0
*RES
1 *171:X out[3] 47.4311 
*END

*D_NET *15 0.000477704
*CONN
*P out[4] O
*I *172:X O *D sky130_fd_sc_hd__buf_2
*CAP
1 out[4] 0.000226501
2 *172:X 0.000226501
3 out[4] out[5] 0
4 out[4] *25:10 2.47015e-05
5 out[3] out[4] 0
*RES
1 *172:X out[4] 47.0789 
*END

*D_NET *16 0.000626916
*CONN
*P out[5] O
*I *173:X O *D sky130_fd_sc_hd__buf_2
*CAP
1 out[5] 0.000313458
2 *173:X 0.000313458
3 out[5] out[6] 0
4 out[5] *35:14 0
5 out[4] out[5] 0
*RES
1 *173:X out[5] 48.4875 
*END

*D_NET *17 0.000821076
*CONN
*P out[6] O
*I *174:X O *D sky130_fd_sc_hd__buf_2
*CAP
1 out[6] 0.000410538
2 *174:X 0.000410538
3 out[6] out[7] 0
4 out[5] out[6] 0
*RES
1 *174:X out[6] 47.5941 
*END

*D_NET *18 0.00110166
*CONN
*P out[7] O
*I *175:X O *D sky130_fd_sc_hd__clkbuf_4
*CAP
1 out[7] 0.000175108
2 *175:X 0.000375724
3 *18:8 0.000550832
4 out[6] out[7] 0
*RES
1 *175:X *18:8 45.7161 
2 *18:8 out[7] 8.672 
*END

*D_NET *19 0.00760253
*CONN
*I *150:D I *D sky130_fd_sc_hd__or4_1
*I *159:B1_N I *D sky130_fd_sc_hd__a21boi_1
*I *149:A3 I *D sky130_fd_sc_hd__o31a_1
*I *146:B I *D sky130_fd_sc_hd__and2_1
*I *145:B I *D sky130_fd_sc_hd__nor2_1
*I *144:X O *D sky130_fd_sc_hd__or4_2
*CAP
1 *150:D 4.5795e-05
2 *159:B1_N 0
3 *149:A3 0.000349545
4 *146:B 0
5 *145:B 0.000145349
6 *144:X 0.000117617
7 *19:51 0.000540129
8 *19:36 0.00103903
9 *19:27 0.000564697
10 *19:10 0.000689496
11 *19:8 0.000292221
12 *145:B *145:A 9.64943e-05
13 *145:B *39:16 0.000192087
14 *145:B *41:14 0.000215735
15 *149:A3 *149:A1 2.24973e-05
16 *149:A3 *22:12 0.000596385
17 *149:A3 *33:10 2.76611e-06
18 *149:A3 *34:10 0
19 *149:A3 *35:14 0
20 *150:D *150:A 1.93593e-05
21 *150:D *37:16 0
22 *150:D *39:16 4.70953e-05
23 *150:D *41:14 4.8612e-05
24 *19:8 *39:10 0.000140202
25 *19:10 *39:16 0.000377181
26 *19:10 *41:14 0.000362538
27 *19:27 *40:8 0.000121604
28 *19:36 *146:A 5.50049e-05
29 *19:51 *159:A1 0.000308952
30 *19:51 *22:12 0.000397074
31 *19:51 *23:19 0.000322634
32 *19:51 *27:14 0.000430264
33 *19:51 *33:10 6.21642e-05
*RES
1 *144:X *19:8 39.5743 
2 *19:8 *19:10 5.075 
3 *19:10 *145:B 42.06 
4 *19:10 *19:27 22.3121 
5 *19:27 *146:B 23 
6 *19:27 *19:36 17.5271 
7 *19:36 *149:A3 46.5964 
8 *19:36 *19:51 32.3586 
9 *19:51 *159:B1_N 23 
10 *19:8 *150:D 39.2014 
*END

*D_NET *20 0.00505713
*CONN
*I *147:A I *D sky130_fd_sc_hd__nor2_1
*I *148:B I *D sky130_fd_sc_hd__xnor2_1
*I *145:Y O *D sky130_fd_sc_hd__nor2_1
*CAP
1 *147:A 0
2 *148:B 0
3 *145:Y 0.000637836
4 *20:23 0.000632248
5 *20:10 0.00127008
6 *20:10 *145:A 6.9908e-05
7 *20:10 *148:A 5.15096e-05
8 *20:10 *39:16 0
9 *20:10 *39:29 0.000152901
10 *20:10 *40:14 0.000219882
11 *20:10 *40:21 0.000286803
12 *20:23 *148:A 3.92407e-05
13 *20:23 *26:8 0.000564498
14 *20:23 *28:10 0.000445041
15 *20:23 *28:14 0.000495987
16 *20:23 *36:8 2.64616e-05
17 *20:23 *42:14 0.00016473
*RES
1 *145:Y *20:10 49.9729 
2 *20:10 *148:B 38 
3 *20:10 *20:23 33.0214 
4 *20:23 *147:A 23 
*END

*D_NET *21 0.00326082
*CONN
*I *147:B I *D sky130_fd_sc_hd__nor2_1
*I *146:X O *D sky130_fd_sc_hd__and2_1
*CAP
1 *147:B 0
2 *146:X 0
3 *21:12 0.00096385
4 *21:6 0.00096385
5 *21:12 *22:12 0
6 *21:12 *23:19 0
7 *21:12 *24:8 0.000353849
8 *21:12 *27:14 0
9 *21:12 *28:10 0
10 *21:12 *28:25 0.000300098
11 *21:12 *28:31 6.25829e-05
12 *21:12 *32:8 5.41288e-05
13 *21:12 *36:10 9.48792e-05
14 *21:12 *36:29 0.000254875
15 *21:12 *36:31 4.07715e-05
16 *21:12 *36:39 9.0326e-05
17 *21:12 *42:14 8.1606e-05
*RES
1 *146:X *21:6 38 
2 *21:6 *21:12 38.78 
3 *21:12 *147:B 23 
*END

*D_NET *22 0.00271909
*CONN
*I *151:A_N I *D sky130_fd_sc_hd__and2b_1
*I *149:X O *D sky130_fd_sc_hd__o31a_1
*CAP
1 *151:A_N 0
2 *149:X 0.000103548
3 *22:12 0.000382443
4 *22:8 0.000485991
5 *22:8 *149:B1 0.000141052
6 *22:12 *146:A 0.000195248
7 *22:12 *149:A1 0.000380333
8 *22:12 *23:19 3.70187e-05
9 *22:12 *24:8 0
10 *149:A3 *22:12 0.000596385
11 *19:51 *22:12 0.000397074
12 *21:12 *22:12 0
*RES
1 *149:X *22:8 39.5743 
2 *22:8 *22:12 28.1743 
3 *22:12 *151:A_N 23 
*END

*D_NET *23 0.00238122
*CONN
*I *153:B I *D sky130_fd_sc_hd__xor2_1
*I *151:B I *D sky130_fd_sc_hd__and2b_1
*I *150:X O *D sky130_fd_sc_hd__or4_1
*CAP
1 *153:B 0
2 *151:B 0
3 *150:X 0.000252136
4 *23:19 0.000570544
5 *23:6 0.00082268
6 *23:6 *144:C 7.25801e-05
7 *23:6 *144:D 7.44161e-06
8 *23:6 *150:B 0.000139969
9 *23:6 *28:31 0.000102093
10 *23:19 *27:14 0
11 *23:19 *28:31 5.41288e-05
12 *19:51 *23:19 0.000322634
13 *21:12 *23:19 0
14 *22:12 *23:19 3.70187e-05
*RES
1 *150:X *23:6 27.9093 
2 *23:6 *151:B 23 
3 *23:6 *23:19 42.8636 
4 *23:19 *153:B 23 
*END

*D_NET *24 0.00195487
*CONN
*I *152:A I *D sky130_fd_sc_hd__clkbuf_1
*I *151:X O *D sky130_fd_sc_hd__and2b_1
*CAP
1 *152:A 0.000220996
2 *151:X 0.000520488
3 *24:8 0.000741484
4 *152:A *34:10 0.000118058
5 *24:8 *146:A 0
6 *24:8 *149:A1 0
7 *24:8 *42:14 0
8 *21:12 *24:8 0.000353849
9 *22:12 *24:8 0
*RES
1 *151:X *24:8 48.3571 
2 *24:8 *152:A 42.4329 
*END

*D_NET *25 0.00467584
*CONN
*I *157:A I *D sky130_fd_sc_hd__and2_1
*I *159:A2 I *D sky130_fd_sc_hd__a21boi_1
*I *155:X O *D sky130_fd_sc_hd__or3_1
*CAP
1 *157:A 0
2 *159:A2 0
3 *155:X 0.000465701
4 *25:25 0.000899241
5 *25:10 0.00136494
6 *25:10 *31:8 7.03869e-05
7 *25:10 *35:14 0.000217613
8 *25:25 *157:B 0.000232734
9 *25:25 *169:A 0.000223043
10 *25:25 *27:8 0.000782264
11 *25:25 *30:12 0.000265472
12 *25:25 *35:14 5.19048e-05
13 out[2] *25:25 2.47015e-05
14 out[3] *25:10 5.31385e-05
15 out[4] *25:10 2.47015e-05
*RES
1 *155:X *25:10 48.9786 
2 *25:10 *159:A2 38 
3 *25:10 *25:25 35.8386 
4 *25:25 *157:A 23 
*END

*D_NET *26 0.00157601
*CONN
*I *157:B I *D sky130_fd_sc_hd__and2_1
*I *156:Y O *D sky130_fd_sc_hd__o21ai_1
*CAP
1 *157:B 8.7828e-05
2 *156:Y 0.000301563
3 *26:8 0.000389391
4 *20:23 *26:8 0.000564498
5 *25:25 *157:B 0.000232734
*RES
1 *156:Y *26:8 45.54 
2 *26:8 *157:B 40.5271 
*END

*D_NET *27 0.00423579
*CONN
*I *158:A I *D sky130_fd_sc_hd__clkbuf_1
*I *157:X O *D sky130_fd_sc_hd__and2_1
*CAP
1 *158:A 0
2 *157:X 0.000577882
3 *27:14 0.000604057
4 *27:8 0.00118194
5 *27:14 *30:12 0.000309123
6 *27:14 *33:10 0.000296956
7 *27:14 *37:22 5.3304e-05
8 *19:51 *27:14 0.000430264
9 *21:12 *27:14 0
10 *23:19 *27:14 0
11 *25:25 *27:8 0.000782264
*RES
1 *157:X *27:8 46.7207 
2 *27:8 *27:14 31.965 
3 *27:14 *158:A 23 
*END

*D_NET *28 0.00883979
*CONN
*I *154:B I *D sky130_fd_sc_hd__xor2_1
*I *144:D I *D sky130_fd_sc_hd__or4_2
*I *155:C I *D sky130_fd_sc_hd__or3_1
*I *160:A I *D sky130_fd_sc_hd__clkbuf_1
*I *156:A2 I *D sky130_fd_sc_hd__o21ai_1
*I *161:X O *D sky130_fd_sc_hd__dlymetal6s2s_1
*CAP
1 *154:B 0
2 *144:D 0.000619315
3 *155:C 0
4 *160:A 0
5 *156:A2 0
6 *161:X 0.000452338
7 *28:46 0.000276463
8 *28:31 0.000489706
9 *28:25 0.0010749
10 *28:14 0.00036389
11 *28:10 0.000423282
12 *28:8 0.000754072
13 *144:D *144:C 0.00076112
14 *144:D *39:10 1.32939e-05
15 *28:10 *154:A 2.46922e-05
16 *28:10 *36:10 0.00029912
17 *28:10 *36:29 1.99391e-05
18 *28:10 *42:14 3.92407e-05
19 *28:14 *42:14 0.000493765
20 *28:25 *156:A1 1.59094e-05
21 *28:25 *36:31 0.000289955
22 *28:31 *33:10 0.000215589
23 *28:31 *36:31 3.47781e-05
24 *28:31 *36:39 3.70094e-05
25 *28:46 *30:12 0.000169674
26 *28:46 *33:10 0.000270978
27 *28:46 *35:14 0
28 *28:46 *37:22 0.000227208
29 *28:46 *43:8 6.17437e-06
30 *20:23 *28:10 0.000445041
31 *20:23 *28:14 0.000495987
32 *21:12 *28:10 0
33 *21:12 *28:25 0.000300098
34 *21:12 *28:31 6.25829e-05
35 *23:6 *144:D 7.44161e-06
36 *23:6 *28:31 0.000102093
37 *23:19 *28:31 5.41288e-05
*RES
1 *161:X *28:8 45.7679 
2 *28:8 *28:10 8.59643 
3 *28:10 *28:14 21.4836 
4 *28:14 *156:A2 23 
5 *28:14 *28:25 20.5929 
6 *28:25 *28:31 20.7586 
7 *28:31 *160:A 23 
8 *28:31 *28:46 36.9393 
9 *28:46 *155:C 23 
10 *28:25 *144:D 47.6943 
11 *28:10 *154:B 38 
*END

*D_NET *29 0.00252419
*CONN
*I *169:A I *D sky130_fd_sc_hd__buf_2
*I *154:X O *D sky130_fd_sc_hd__xor2_1
*CAP
1 *169:A 0.000373259
2 *154:X 0.000488094
3 *29:8 0.000861353
4 *169:A *32:14 0.00014198
5 *169:A *43:12 0
6 *29:8 *35:8 0.000264559
7 *29:8 *42:14 0.000171898
8 *25:25 *169:A 0.000223043
*RES
1 *154:X *29:8 47.1971 
2 *29:8 *169:A 46.9486 
*END

*D_NET *30 0.00262108
*CONN
*I *170:A I *D sky130_fd_sc_hd__buf_2
*I *158:X O *D sky130_fd_sc_hd__clkbuf_1
*CAP
1 *170:A 0
2 *158:X 0
3 *30:12 0.000668403
4 *30:6 0.000668403
5 *30:12 *32:14 1.94418e-05
6 *30:12 *33:10 2.60152e-05
7 *30:12 *35:14 0
8 *30:12 *43:12 0.000494554
9 *25:25 *30:12 0.000265472
10 *27:14 *30:12 0.000309123
11 *28:46 *30:12 0.000169674
*RES
1 *158:X *30:6 38 
2 *30:6 *30:12 33.995 
3 *30:12 *170:A 23 
*END

*D_NET *31 0.000391725
*CONN
*I *171:A I *D sky130_fd_sc_hd__buf_2
*I *159:Y O *D sky130_fd_sc_hd__a21boi_1
*CAP
1 *171:A 3.77894e-05
2 *159:Y 5.08247e-05
3 *31:8 8.86141e-05
4 *31:8 *35:14 0.00014411
5 *25:10 *31:8 7.03869e-05
*RES
1 *159:Y *31:8 39.9057 
2 *31:8 *171:A 38.6214 
*END

*D_NET *32 0.00417968
*CONN
*I *172:A I *D sky130_fd_sc_hd__buf_2
*I *147:Y O *D sky130_fd_sc_hd__nor2_1
*CAP
1 *172:A 0
2 *147:Y 0.000498415
3 *32:14 0.000504742
4 *32:8 0.00100316
5 *32:14 *35:14 0.00078465
6 *32:14 *43:12 0.00117316
7 *169:A *32:14 0.00014198
8 *21:12 *32:8 5.41288e-05
9 *30:12 *32:14 1.94418e-05
*RES
1 *147:Y *32:8 46.2443 
2 *32:8 *32:14 32.9179 
3 *32:14 *172:A 23 
*END

*D_NET *33 0.00248388
*CONN
*I *173:A I *D sky130_fd_sc_hd__buf_2
*I *148:Y O *D sky130_fd_sc_hd__xnor2_1
*CAP
1 *173:A 0.000231085
2 *148:Y 0.000573621
3 *33:10 0.000804705
4 *33:10 *35:14 0
5 *149:A3 *33:10 2.76611e-06
6 *19:51 *33:10 6.21642e-05
7 *27:14 *33:10 0.000296956
8 *28:31 *33:10 0.000215589
9 *28:46 *33:10 0.000270978
10 *30:12 *33:10 2.60152e-05
*RES
1 *148:Y *33:10 49.3929 
2 *33:10 *173:A 41.9564 
*END

*D_NET *34 0.00173968
*CONN
*I *174:A I *D sky130_fd_sc_hd__buf_2
*I *152:X O *D sky130_fd_sc_hd__clkbuf_1
*CAP
1 *174:A 0
2 *152:X 0.000810811
3 *34:10 0.000810811
4 *34:10 *149:A1 0
5 *34:10 *35:14 0
6 *149:A3 *34:10 0
7 *152:A *34:10 0.000118058
*RES
1 *152:X *34:10 48.9786 
2 *34:10 *174:A 38 
*END

*D_NET *35 0.00406283
*CONN
*I *175:A I *D sky130_fd_sc_hd__clkbuf_4
*I *153:X O *D sky130_fd_sc_hd__xor2_1
*CAP
1 *175:A 0
2 *153:X 0.000211125
3 *35:14 0.00108887
4 *35:8 0.0013
5 out[5] *35:14 0
6 *149:A3 *35:14 0
7 *25:10 *35:14 0.000217613
8 *25:25 *35:14 5.19048e-05
9 *28:46 *35:14 0
10 *29:8 *35:8 0.000264559
11 *30:12 *35:14 0
12 *31:8 *35:14 0.00014411
13 *32:14 *35:14 0.00078465
14 *33:10 *35:14 0
15 *34:10 *35:14 0
*RES
1 *153:X *35:8 41.0036 
2 *35:8 *35:14 40.4164 
3 *35:14 *175:A 23 
*END

*D_NET *36 0.00820708
*CONN
*I *156:A1 I *D sky130_fd_sc_hd__o21ai_1
*I *144:C I *D sky130_fd_sc_hd__or4_2
*I *155:B I *D sky130_fd_sc_hd__or3_1
*I *154:A I *D sky130_fd_sc_hd__xor2_1
*I *162:X O *D sky130_fd_sc_hd__buf_1
*CAP
1 *156:A1 4.47995e-05
2 *144:C 0.000270925
3 *155:B 0
4 *154:A 0.000143341
5 *162:X 0.000540555
6 *36:39 0.000549113
7 *36:31 0.000950799
8 *36:29 0.0003896
9 *36:10 0.000491611
10 *36:8 0.000674785
11 *144:C *150:A 5.56356e-05
12 *144:C *150:B 1.83618e-05
13 *144:C *38:16 5.56356e-05
14 *144:C *39:10 8.17427e-05
15 *144:C *41:14 4.67488e-05
16 *154:A *42:14 1.24376e-05
17 *36:29 *42:14 0.000425799
18 *36:31 *42:14 0.000394824
19 *36:39 *37:22 0.000775832
20 *36:39 *42:14 0.000222113
21 *144:D *144:C 0.00076112
22 *20:23 *36:8 2.64616e-05
23 *21:12 *36:10 9.48792e-05
24 *21:12 *36:29 0.000254875
25 *21:12 *36:31 4.07715e-05
26 *21:12 *36:39 9.0326e-05
27 *23:6 *144:C 7.25801e-05
28 *28:10 *154:A 2.46922e-05
29 *28:10 *36:10 0.00029912
30 *28:10 *36:29 1.99391e-05
31 *28:25 *156:A1 1.59094e-05
32 *28:25 *36:31 0.000289955
33 *28:31 *36:31 3.47781e-05
34 *28:31 *36:39 3.70094e-05
*RES
1 *162:X *36:8 46.7207 
2 *36:8 *36:10 4.19464 
3 *36:10 *154:A 40.4132 
4 *36:10 *36:29 7.28107 
5 *36:29 *36:31 5.42714 
6 *36:31 *36:39 27.18 
7 *36:39 *155:B 23 
8 *36:31 *144:C 47.0936 
9 *36:29 *156:A1 38.6214 
*END

*D_NET *37 0.0059814
*CONN
*I *156:B1 I *D sky130_fd_sc_hd__o21ai_1
*I *144:B I *D sky130_fd_sc_hd__or4_2
*I *155:A I *D sky130_fd_sc_hd__or3_1
*I *163:X O *D sky130_fd_sc_hd__buf_1
*CAP
1 *156:B1 0.000389318
2 *144:B 0
3 *155:A 0
4 *163:X 0.000468734
5 *37:22 0.000943957
6 *37:16 0.00130325
7 *37:10 0.00121735
8 *37:10 *38:16 0.000195248
9 *37:16 *38:16 0.000407199
10 *37:16 *41:14 0
11 *150:D *37:16 0
12 *6:17 *37:10 0
13 *7:17 *37:16 0
14 *27:14 *37:22 5.3304e-05
15 *28:46 *37:22 0.000227208
16 *36:39 *37:22 0.000775832
*RES
1 *163:X *37:10 46.99 
2 *37:10 *37:16 7.25 
3 *37:16 *37:22 33.7257 
4 *37:22 *155:A 23 
5 *37:16 *144:B 38 
6 *37:10 *156:B1 44.3386 
*END

*D_NET *38 0.00424638
*CONN
*I *159:A1 I *D sky130_fd_sc_hd__a21boi_1
*I *144:A I *D sky130_fd_sc_hd__or4_2
*I *164:X O *D sky130_fd_sc_hd__clkbuf_1
*CAP
1 *159:A1 0.00114847
2 *144:A 0
3 *164:X 0.000137518
4 *38:16 0.000339015
5 *38:8 0.001625
6 *38:16 *39:10 2.93431e-05
7 *144:C *38:16 5.56356e-05
8 *19:51 *159:A1 0.000308952
9 *37:10 *38:16 0.000195248
10 *37:16 *38:16 0.000407199
*RES
1 *164:X *38:8 25.0714 
2 *38:8 *38:16 38.5136 
3 *38:16 *144:A 23 
4 *38:8 *159:A1 40.2964 
*END

*D_NET *39 0.00536126
*CONN
*I *150:A I *D sky130_fd_sc_hd__or4_1
*I *146:A I *D sky130_fd_sc_hd__and2_1
*I *149:A1 I *D sky130_fd_sc_hd__o31a_1
*I *145:A I *D sky130_fd_sc_hd__nor2_1
*I *165:X O *D sky130_fd_sc_hd__buf_1
*CAP
1 *150:A 4.80511e-05
2 *146:A 0.000129144
3 *149:A1 0.00027282
4 *145:A 0.000138549
5 *165:X 0.000285817
6 *39:29 0.000816592
7 *39:16 0.00093113
8 *39:10 0.000711822
9 *149:A1 *42:14 0
10 *150:A *150:B 4.84129e-06
11 *39:10 *41:14 9.41704e-05
12 *39:16 *40:14 0
13 *144:C *150:A 5.56356e-05
14 *144:C *39:10 8.17427e-05
15 *144:D *39:10 1.32939e-05
16 *145:B *145:A 9.64943e-05
17 *145:B *39:16 0.000192087
18 *149:A3 *149:A1 2.24973e-05
19 *150:D *150:A 1.93593e-05
20 *150:D *39:16 4.70953e-05
21 *19:8 *39:10 0.000140202
22 *19:10 *39:16 0.000377181
23 *19:36 *146:A 5.50049e-05
24 *20:10 *145:A 6.9908e-05
25 *20:10 *39:16 0
26 *20:10 *39:29 0.000152901
27 *22:12 *146:A 0.000195248
28 *22:12 *149:A1 0.000380333
29 *24:8 *146:A 0
30 *24:8 *149:A1 0
31 *34:10 *149:A1 0
32 *38:16 *39:10 2.93431e-05
*RES
1 *165:X *39:10 43.7068 
2 *39:10 *39:16 23.6896 
3 *39:16 *145:A 26.0243 
4 *39:16 *39:29 22.7679 
5 *39:29 *149:A1 44.1314 
6 *39:29 *146:A 41.2314 
7 *39:10 *150:A 39.2946 
*END

*D_NET *40 0.00531978
*CONN
*I *148:A I *D sky130_fd_sc_hd__xnor2_1
*I *150:B I *D sky130_fd_sc_hd__or4_1
*I *149:A2 I *D sky130_fd_sc_hd__o31a_1
*I *166:X O *D sky130_fd_sc_hd__buf_1
*CAP
1 *148:A 2.73927e-05
2 *150:B 0.000171882
3 *149:A2 0
4 *166:X 0.000669208
5 *40:21 0.000301566
6 *40:14 0.000511716
7 *40:8 0.00128322
8 *148:A *42:14 8.94487e-05
9 *40:14 *149:B1 0.000443679
10 *40:14 *42:14 0.00064252
11 *40:21 *42:14 0.000296947
12 *144:C *150:B 1.83618e-05
13 *150:A *150:B 4.84129e-06
14 *19:27 *40:8 0.000121604
15 *20:10 *148:A 5.15096e-05
16 *20:10 *40:14 0.000219882
17 *20:10 *40:21 0.000286803
18 *20:23 *148:A 3.92407e-05
19 *23:6 *150:B 0.000139969
20 *39:16 *40:14 0
*RES
1 *166:X *40:8 46.2443 
2 *40:8 *40:14 29.21 
3 *40:14 *149:A2 23 
4 *40:8 *40:21 4.01857 
5 *40:21 *150:B 40.5271 
6 *40:21 *148:A 39.2014 
*END

*D_NET *41 0.00462527
*CONN
*I *149:B1 I *D sky130_fd_sc_hd__o31a_1
*I *150:C I *D sky130_fd_sc_hd__or4_1
*I *167:X O *D sky130_fd_sc_hd__clkbuf_1
*CAP
1 *149:B1 0.00041416
2 *150:C 0
3 *167:X 0.000170149
4 *41:14 0.000711623
5 *41:6 0.00129593
6 *149:B1 *42:8 0.00044751
7 *41:6 *42:8 0.000233359
8 *144:C *41:14 4.67488e-05
9 *145:B *41:14 0.000215735
10 *150:D *41:14 4.8612e-05
11 *19:10 *41:14 0.000362538
12 *22:8 *149:B1 0.000141052
13 *37:16 *41:14 0
14 *39:10 *41:14 9.41704e-05
15 *40:14 *149:B1 0.000443679
*RES
1 *167:X *41:6 26.9564 
2 *41:6 *41:14 44.6243 
3 *41:14 *150:C 23 
4 *41:6 *149:B1 33.9993 
*END

*D_NET *42 0.00653021
*CONN
*I *153:A I *D sky130_fd_sc_hd__xor2_1
*I *168:X O *D sky130_fd_sc_hd__buf_1
*CAP
1 *153:A 0
2 *168:X 0.000453925
3 *42:14 0.00095308
4 *42:8 0.00140701
5 *148:A *42:14 8.94487e-05
6 *149:A1 *42:14 0
7 *149:B1 *42:8 0.00044751
8 *154:A *42:14 1.24376e-05
9 *20:23 *42:14 0.00016473
10 *21:12 *42:14 8.1606e-05
11 *24:8 *42:14 0
12 *28:10 *42:14 3.92407e-05
13 *28:14 *42:14 0.000493765
14 *29:8 *42:14 0.000171898
15 *36:29 *42:14 0.000425799
16 *36:31 *42:14 0.000394824
17 *36:39 *42:14 0.000222113
18 *40:14 *42:14 0.00064252
19 *40:21 *42:14 0.000296947
20 *41:6 *42:8 0.000233359
*RES
1 *168:X *42:8 45.2914 
2 *42:8 *42:14 44.2279 
3 *42:14 *153:A 23 
*END

*D_NET *43 0.00316415
*CONN
*I *176:A I *D sky130_fd_sc_hd__buf_2
*I *160:X O *D sky130_fd_sc_hd__clkbuf_1
*CAP
1 *176:A 0
2 *160:X 0.000136265
3 *43:12 0.000608867
4 *43:8 0.000745132
5 *169:A *43:12 0
6 *28:46 *43:8 6.17437e-06
7 *30:12 *43:12 0.000494554
8 *32:14 *43:12 0.00117316
*RES
1 *160:X *43:8 39.5743 
2 *43:8 *43:12 33.8086 
3 *43:12 *176:A 23 
*END
