*SPEF "ieee 1481-1999"
*DESIGN "twos_complement"
*DATE "14:01:23 Saturday April 26, 2025"
*VENDOR "The OpenROAD Project"
*PROGRAM "OpenROAD"
*VERSION "b16bda7e82721d10566ff7e2b68f1ff0be9f9e38"
*DESIGN_FLOW "NAME_SCOPE LOCAL" "PIN_CAP NONE"
*DIVIDER /
*DELIMITER :
*BUS_DELIMITER []
*T_UNIT 1 NS
*C_UNIT 1 PF
*R_UNIT 1 OHM
*L_UNIT 1 HENRY

*NAME_MAP
*3 in[0]
*4 in[1]
*5 in[2]
*6 in[3]
*7 in[4]
*8 in[5]
*9 in[6]
*10 in[7]
*11 out[0]
*12 out[1]
*13 out[2]
*14 out[3]
*15 out[4]
*16 out[5]
*17 out[6]
*18 out[7]
*19 _00_
*20 _01_
*21 _02_
*22 _03_
*23 _04_
*24 _05_
*25 _06_
*26 _07_
*27 _08_
*28 net1
*29 net10
*30 net11
*31 net12
*32 net13
*33 net14
*34 net15
*35 net16
*36 net2
*37 net3
*38 net4
*39 net5
*40 net6
*41 net7
*42 net8
*43 net9
*44 FILLER_0_0_21
*45 FILLER_0_0_27
*46 FILLER_0_0_36
*47 FILLER_0_0_9
*48 FILLER_0_10_12
*49 FILLER_0_10_18
*50 FILLER_0_10_26
*51 FILLER_0_10_29
*52 FILLER_0_10_41
*53 FILLER_0_10_6
*54 FILLER_0_11_18
*55 FILLER_0_11_25
*56 FILLER_0_11_37
*57 FILLER_0_11_45
*58 FILLER_0_11_6
*59 FILLER_0_12_13
*60 FILLER_0_12_25
*61 FILLER_0_12_29
*62 FILLER_0_12_37
*63 FILLER_0_1_15
*64 FILLER_0_1_21
*65 FILLER_0_1_3
*66 FILLER_0_1_33
*67 FILLER_0_1_45
*68 FILLER_0_2_13
*69 FILLER_0_2_25
*70 FILLER_0_2_29
*71 FILLER_0_2_3
*72 FILLER_0_2_41
*73 FILLER_0_2_47
*74 FILLER_0_2_9
*75 FILLER_0_3_18
*76 FILLER_0_3_31
*77 FILLER_0_3_43
*78 FILLER_0_3_6
*79 FILLER_0_4_15
*80 FILLER_0_4_27
*81 FILLER_0_4_29
*82 FILLER_0_4_3
*83 FILLER_0_4_35
*84 FILLER_0_4_39
*85 FILLER_0_4_47
*86 FILLER_0_5_13
*87 FILLER_0_5_33
*88 FILLER_0_5_38
*89 FILLER_0_6_15
*90 FILLER_0_6_27
*91 FILLER_0_6_29
*92 FILLER_0_6_3
*93 FILLER_0_6_41
*94 FILLER_0_6_47
*95 FILLER_0_7_15
*96 FILLER_0_7_19
*97 FILLER_0_7_24
*98 FILLER_0_7_3
*99 FILLER_0_7_36
*100 FILLER_0_8_18
*101 FILLER_0_8_26
*102 FILLER_0_8_29
*103 FILLER_0_8_37
*104 FILLER_0_8_46
*105 FILLER_0_8_6
*106 FILLER_0_9_15
*107 FILLER_0_9_26
*108 FILLER_0_9_3
*109 FILLER_0_9_37
*110 FILLER_0_9_45
*111 PHY_EDGE_ROW_0_Left_13
*112 PHY_EDGE_ROW_0_Right_0
*113 PHY_EDGE_ROW_10_Left_23
*114 PHY_EDGE_ROW_10_Right_10
*115 PHY_EDGE_ROW_11_Left_24
*116 PHY_EDGE_ROW_11_Right_11
*117 PHY_EDGE_ROW_12_Left_25
*118 PHY_EDGE_ROW_12_Right_12
*119 PHY_EDGE_ROW_1_Left_14
*120 PHY_EDGE_ROW_1_Right_1
*121 PHY_EDGE_ROW_2_Left_15
*122 PHY_EDGE_ROW_2_Right_2
*123 PHY_EDGE_ROW_3_Left_16
*124 PHY_EDGE_ROW_3_Right_3
*125 PHY_EDGE_ROW_4_Left_17
*126 PHY_EDGE_ROW_4_Right_4
*127 PHY_EDGE_ROW_5_Left_18
*128 PHY_EDGE_ROW_5_Right_5
*129 PHY_EDGE_ROW_6_Left_19
*130 PHY_EDGE_ROW_6_Right_6
*131 PHY_EDGE_ROW_7_Left_20
*132 PHY_EDGE_ROW_7_Right_7
*133 PHY_EDGE_ROW_8_Left_21
*134 PHY_EDGE_ROW_8_Right_8
*135 PHY_EDGE_ROW_9_Left_22
*136 PHY_EDGE_ROW_9_Right_9
*137 TAP_TAPCELL_ROW_0_26
*138 TAP_TAPCELL_ROW_10_31
*139 TAP_TAPCELL_ROW_12_32
*140 TAP_TAPCELL_ROW_2_27
*141 TAP_TAPCELL_ROW_4_28
*142 TAP_TAPCELL_ROW_6_29
*143 TAP_TAPCELL_ROW_8_30
*144 _09_
*145 _10_
*146 _11_
*147 _12_
*148 _13_
*149 _14_
*150 _15_
*151 _16_
*152 _17_
*153 _18_
*154 _19_
*155 _20_
*156 _21_
*157 _22_
*158 _23_
*159 _24_
*160 _25_
*161 input1
*162 input2
*163 input3
*164 input4
*165 input5
*166 input6
*167 input7
*168 input8
*169 output10
*170 output11
*171 output12
*172 output13
*173 output14
*174 output15
*175 output16
*176 output9

*PORTS
in[0] I
in[1] I
in[2] I
in[3] I
in[4] I
in[5] I
in[6] I
in[7] I
out[0] O
out[1] O
out[2] O
out[3] O
out[4] O
out[5] O
out[6] O
out[7] O

*D_NET *3 0.00105377
*CONN
*P in[0] I
*I *161:A I *D sky130_fd_sc_hd__dlymetal6s2s_1
*CAP
1 in[0] 0.000526885
2 *161:A 0.000526885
3 *161:A *162:A 0
*RES
1 in[0] *161:A 24.1943 
*END

*D_NET *4 0.000762532
*CONN
*P in[1] I
*I *162:A I *D sky130_fd_sc_hd__buf_1
*CAP
1 in[1] 0.000381266
2 *162:A 0.000381266
3 *162:A *163:A 0
4 *161:A *162:A 0
*RES
1 in[1] *162:A 22.3017 
*END

*D_NET *5 0.000572832
*CONN
*P in[2] I
*I *163:A I *D sky130_fd_sc_hd__buf_1
*CAP
1 in[2] 0.000286416
2 *163:A 0.000286416
3 *163:A *164:A 0
4 *162:A *163:A 0
*RES
1 in[2] *163:A 20.4803 
*END

*D_NET *6 0.000694675
*CONN
*P in[3] I
*I *164:A I *D sky130_fd_sc_hd__clkbuf_1
*CAP
1 in[3] 0.000347337
2 *164:A 0.000347337
3 *164:A *165:A 0
4 *164:A *37:10 0
5 *163:A *164:A 0
*RES
1 in[3] *164:A 21.6946 
*END

*D_NET *7 0.000605554
*CONN
*P in[4] I
*I *165:A I *D sky130_fd_sc_hd__buf_1
*CAP
1 in[4] 0.000302777
2 *165:A 0.000302777
3 *165:A *166:A 0
4 *165:A *37:16 0
5 *164:A *165:A 0
*RES
1 in[4] *165:A 20.7838 
*END

*D_NET *8 0.000715317
*CONN
*P in[5] I
*I *166:A I *D sky130_fd_sc_hd__buf_1
*CAP
1 in[5] 0.000357659
2 *166:A 0.000357659
3 *166:A *167:A 0
4 *165:A *166:A 0
*RES
1 in[5] *166:A 21.9981 
*END

*D_NET *9 0.000563768
*CONN
*P in[6] I
*I *167:A I *D sky130_fd_sc_hd__clkbuf_1
*CAP
1 in[6] 0.000281884
2 *167:A 0.000281884
3 *167:A *168:A 0
4 *166:A *167:A 0
*RES
1 in[6] *167:A 20.4803 
*END

*D_NET *10 0.00123174
*CONN
*P in[7] I
*I *168:A I *D sky130_fd_sc_hd__buf_1
*CAP
1 in[7] 0.000615872
2 *168:A 0.000615872
3 *167:A *168:A 0
*RES
1 in[7] *168:A 25.0176 
*END

*D_NET *11 0.00116601
*CONN
*P out[0] O
*I *176:X O *D sky130_fd_sc_hd__buf_2
*CAP
1 out[0] 0.000583005
2 *176:X 0.000583005
3 out[0] out[1] 0
*RES
1 *176:X out[0] 23.8754 
*END

*D_NET *12 0.000438356
*CONN
*P out[1] O
*I *169:X O *D sky130_fd_sc_hd__buf_2
*CAP
1 out[1] 0.000219178
2 *169:X 0.000219178
3 out[1] out[2] 0
4 out[0] out[1] 0
*RES
1 *169:X out[1] 18.1229 
*END

*D_NET *13 0.00044905
*CONN
*P out[2] O
*I *170:X O *D sky130_fd_sc_hd__buf_2
*CAP
1 out[2] 0.000213423
2 *170:X 0.000213423
3 out[2] out[3] 0
4 out[2] *157:A 2.22043e-05
5 out[1] out[2] 0
*RES
1 *170:X out[2] 18.1229 
*END

*D_NET *14 0.000491704
*CONN
*P out[3] O
*I *171:X O *D sky130_fd_sc_hd__buf_2
*CAP
1 out[3] 0.000222057
2 *171:X 0.000222057
3 out[3] out[4] 0
4 out[3] *25:10 4.75911e-05
5 out[2] out[3] 0
*RES
1 *171:X out[3] 18.4264 
*END

*D_NET *15 0.00044905
*CONN
*P out[4] O
*I *172:X O *D sky130_fd_sc_hd__buf_2
*CAP
1 out[4] 0.000213423
2 *172:X 0.000213423
3 out[4] out[5] 0
4 out[4] *25:10 2.22043e-05
5 out[3] out[4] 0
*RES
1 *172:X out[4] 18.1229 
*END

*D_NET *16 0.000581652
*CONN
*P out[5] O
*I *173:X O *D sky130_fd_sc_hd__buf_2
*CAP
1 out[5] 0.000290826
2 *173:X 0.000290826
3 out[5] out[6] 0
4 out[5] *35:14 0
5 out[4] out[5] 0
*RES
1 *173:X out[5] 19.3371 
*END

*D_NET *17 0.000766946
*CONN
*P out[6] O
*I *174:X O *D sky130_fd_sc_hd__buf_2
*CAP
1 out[6] 0.000383473
2 *174:X 0.000383473
3 out[6] out[7] 0
4 out[5] out[6] 0
*RES
1 *174:X out[6] 18.5553 
*END

*D_NET *18 0.00103775
*CONN
*P out[7] O
*I *175:X O *D sky130_fd_sc_hd__clkbuf_4
*CAP
1 out[7] 0.000518877
2 *175:X 0.000518877
3 out[6] out[7] 0
*RES
1 *175:X out[7] 24.4258 
*END

*D_NET *19 0.0067706
*CONN
*I *150:D I *D sky130_fd_sc_hd__or4_1
*I *159:B1_N I *D sky130_fd_sc_hd__a21boi_1
*I *149:A3 I *D sky130_fd_sc_hd__o31a_1
*I *146:B I *D sky130_fd_sc_hd__and2_1
*I *145:B I *D sky130_fd_sc_hd__nor2_1
*I *144:X O *D sky130_fd_sc_hd__or4_2
*CAP
1 *150:D 3.57224e-05
2 *159:B1_N 0.000442183
3 *149:A3 0.000302833
4 *146:B 0
5 *145:B 0.000117456
6 *144:X 0.000105035
7 *19:36 0.000877218
8 *19:27 0.00049825
9 *19:10 0.000584865
10 *19:8 0.000242118
11 *145:B *145:A 9.58126e-05
12 *145:B *150:C 0.000194217
13 *145:B *39:16 0.000173804
14 *149:A3 *149:A1 2.16719e-05
15 *149:A3 *151:A_N 0.000537502
16 *149:A3 *173:A 2.8266e-06
17 *149:A3 *174:A 0
18 *149:A3 *35:14 0
19 *150:D *150:A 1.85696e-05
20 *150:D *150:C 4.42509e-05
21 *150:D *37:16 0
22 *150:D *39:16 4.29471e-05
23 *159:B1_N *151:A_N 0.000358146
24 *159:B1_N *153:B 0.000309114
25 *159:B1_N *158:A 0.00041238
26 *159:B1_N *159:A1 0.000310298
27 *159:B1_N *173:A 6.16958e-05
28 *19:8 *39:10 0.000138655
29 *19:10 *150:C 0.000325756
30 *19:10 *39:16 0.000340781
31 *19:27 *40:8 0.000121267
32 *19:36 *146:A 5.52238e-05
*RES
1 *144:X *19:8 15.1571 
2 *19:8 *19:10 4.375 
3 *19:10 *145:B 17.3 
4 *19:10 *19:27 10.8036 
5 *19:27 *146:B 9.3 
6 *19:27 *19:36 6.67857 
7 *19:36 *149:A3 21.2107 
8 *19:36 *159:B1_N 28.7643 
9 *19:8 *150:D 14.8357 
*END

*D_NET *20 0.00447539
*CONN
*I *147:A I *D sky130_fd_sc_hd__nor2_1
*I *148:B I *D sky130_fd_sc_hd__xnor2_1
*I *145:Y O *D sky130_fd_sc_hd__nor2_1
*CAP
1 *147:A 0.000524625
2 *148:B 0
3 *145:Y 0.000564282
4 *20:10 0.00108891
5 *147:A *148:A 3.51442e-05
6 *147:A *157:B 0.000509464
7 *147:A *28:10 0.000402075
8 *147:A *28:14 0.000446214
9 *147:A *36:10 2.59355e-05
10 *147:A *42:14 0.000157948
11 *20:10 *145:A 6.81704e-05
12 *20:10 *148:A 4.66511e-05
13 *20:10 *149:A2 0.000198698
14 *20:10 *39:16 0
15 *20:10 *39:29 0.000148002
16 *20:10 *40:21 0.000259271
*RES
1 *145:Y *20:10 24.1214 
2 *20:10 *148:B 13.8 
3 *20:10 *147:A 29.3357 
*END

*D_NET *21 0.0028917
*CONN
*I *147:B I *D sky130_fd_sc_hd__nor2_1
*I *146:X O *D sky130_fd_sc_hd__and2_1
*CAP
1 *147:B 0.000822978
2 *146:X 0.000822978
3 *147:B *151:A_N 0
4 *147:B *152:A 0.000319316
5 *147:B *153:B 0
6 *147:B *155:B 8.6642e-05
7 *147:B *158:A 0
8 *147:B *28:10 0
9 *147:B *28:25 0.000270943
10 *147:B *28:31 5.66157e-05
11 *147:B *32:14 5.33334e-05
12 *147:B *36:10 9.48262e-05
13 *147:B *36:29 0.000244178
14 *147:B *36:31 3.90513e-05
15 *147:B *42:14 8.08376e-05
*RES
1 *146:X *147:B 48.1 
*END

*D_NET *22 0.00241833
*CONN
*I *151:A_N I *D sky130_fd_sc_hd__and2b_1
*I *149:X O *D sky130_fd_sc_hd__o31a_1
*CAP
1 *151:A_N 0.00041399
2 *149:X 0.00041399
3 *151:A_N *146:A 0.000176234
4 *151:A_N *149:A1 0.000343203
5 *151:A_N *149:B1 0.00014183
6 *151:A_N *152:A 0
7 *151:A_N *153:B 3.34366e-05
8 *147:B *151:A_N 0
9 *149:A3 *151:A_N 0.000537502
10 *159:B1_N *151:A_N 0.000358146
*RES
1 *149:X *151:A_N 40.3143 
*END

*D_NET *23 0.00214599
*CONN
*I *153:B I *D sky130_fd_sc_hd__xor2_1
*I *151:B I *D sky130_fd_sc_hd__and2b_1
*I *150:X O *D sky130_fd_sc_hd__or4_1
*CAP
1 *153:B 0.00050224
2 *151:B 0
3 *150:X 0.00021288
4 *23:6 0.00071512
5 *153:B *158:A 0
6 *153:B *28:31 5.33334e-05
7 *23:6 *144:C 7.2118e-05
8 *23:6 *144:D 7.49387e-06
9 *23:6 *150:B 0.000139625
10 *23:6 *28:31 0.000100625
11 *147:B *153:B 0
12 *151:A_N *153:B 3.34366e-05
13 *159:B1_N *153:B 0.000309114
*RES
1 *150:X *23:6 13.5321 
2 *23:6 *151:B 9.3 
3 *23:6 *153:B 29.3893 
*END

*D_NET *24 0.00174673
*CONN
*I *152:A I *D sky130_fd_sc_hd__clkbuf_1
*I *151:X O *D sky130_fd_sc_hd__and2b_1
*CAP
1 *152:A 0.000655336
2 *151:X 0.000655336
3 *152:A *146:A 0
4 *152:A *149:A1 0
5 *152:A *174:A 0.000116746
6 *152:A *42:14 0
7 *147:B *152:A 0.000319316
8 *151:A_N *152:A 0
*RES
1 *151:X *152:A 40.35 
*END

*D_NET *25 0.00431175
*CONN
*I *157:A I *D sky130_fd_sc_hd__and2_1
*I *159:A2 I *D sky130_fd_sc_hd__a21boi_1
*I *155:X O *D sky130_fd_sc_hd__or3_1
*CAP
1 *157:A 0.000792321
2 *159:A2 0
3 *155:X 0.000410408
4 *25:10 0.00120273
5 *157:A *157:B 0.000228784
6 *157:A *158:A 0.000783192
7 *157:A *169:A 0.000201127
8 *157:A *170:A 0.000266479
9 *157:A *35:14 5.16396e-05
10 *25:10 *171:A 6.75007e-05
11 *25:10 *35:14 0.000215564
12 out[2] *157:A 2.22043e-05
13 out[3] *25:10 4.75911e-05
14 out[4] *25:10 2.22043e-05
*RES
1 *155:X *25:10 23.2643 
2 *25:10 *159:A2 13.8 
3 *25:10 *157:A 31.7643 
*END

*D_NET *26 0.0014184
*CONN
*I *157:B I *D sky130_fd_sc_hd__and2_1
*I *156:Y O *D sky130_fd_sc_hd__o21ai_1
*CAP
1 *157:B 0.000340076
2 *156:Y 0.000340076
3 *147:A *157:B 0.000509464
4 *157:A *157:B 0.000228784
*RES
1 *156:Y *157:B 36.2786 
*END

*D_NET *27 0.00389863
*CONN
*I *158:A I *D sky130_fd_sc_hd__clkbuf_1
*I *157:X O *D sky130_fd_sc_hd__and2_1
*CAP
1 *158:A 0.00103714
2 *157:X 0.00103714
3 *158:A *155:A 5.33005e-05
4 *158:A *170:A 0.000306948
5 *158:A *173:A 0.000268528
6 *147:B *158:A 0
7 *153:B *158:A 0
8 *157:A *158:A 0.000783192
9 *159:B1_N *158:A 0.00041238
*RES
1 *157:X *158:A 49.7429 
*END

*D_NET *28 0.00801728
*CONN
*I *154:B I *D sky130_fd_sc_hd__xor2_1
*I *144:D I *D sky130_fd_sc_hd__or4_2
*I *155:C I *D sky130_fd_sc_hd__or3_1
*I *160:A I *D sky130_fd_sc_hd__clkbuf_1
*I *156:A2 I *D sky130_fd_sc_hd__o21ai_1
*I *161:X O *D sky130_fd_sc_hd__dlymetal6s2s_1
*CAP
1 *154:B 0
2 *144:D 0.000582306
3 *155:C 0.000232269
4 *160:A 0
5 *156:A2 0
6 *161:X 0.00067247
7 *28:31 0.000406825
8 *28:25 0.000962107
9 *28:14 0.000305104
10 *28:10 0.000772328
11 *144:D *144:C 0.00075209
12 *144:D *39:10 1.32552e-05
13 *155:C *155:A 0.000228558
14 *155:C *170:A 0.000153047
15 *155:C *173:A 0.000247098
16 *155:C *176:A 6.05161e-06
17 *155:C *35:14 0
18 *28:10 *154:A 2.21972e-05
19 *28:10 *36:10 0.000270503
20 *28:10 *36:29 1.91414e-05
21 *28:10 *42:14 3.51442e-05
22 *28:14 *42:14 0.000444507
23 *28:25 *156:A1 1.58163e-05
24 *28:25 *36:31 0.000261693
25 *28:31 *155:B 3.34295e-05
26 *28:31 *173:A 0.000212324
27 *28:31 *36:31 3.17148e-05
28 *147:A *28:10 0.000402075
29 *147:A *28:14 0.000446214
30 *147:B *28:10 0
31 *147:B *28:25 0.000270943
32 *147:B *28:31 5.66157e-05
33 *153:B *28:31 5.33334e-05
34 *23:6 *144:D 7.49387e-06
35 *23:6 *28:31 0.000100625
*RES
1 *161:X *28:10 27.9071 
2 *28:10 *28:14 10.0893 
3 *28:14 *156:A2 9.3 
4 *28:14 *28:25 9.32143 
5 *28:25 *28:31 9.46429 
6 *28:31 *160:A 9.3 
7 *28:31 *155:C 24.2821 
8 *28:25 *144:D 22.1571 
9 *28:10 *154:B 13.8 
*END

*D_NET *29 0.00229956
*CONN
*I *169:A I *D sky130_fd_sc_hd__buf_2
*I *154:X O *D sky130_fd_sc_hd__xor2_1
*CAP
1 *169:A 0.000761174
2 *154:X 0.000761174
3 *169:A *176:A 0
4 *169:A *32:14 0.000141254
5 *169:A *35:14 0.000265447
6 *169:A *42:14 0.000169383
7 *157:A *169:A 0.000201127
*RES
1 *154:X *169:A 43.2429 
*END

*D_NET *30 0.0023471
*CONN
*I *170:A I *D sky130_fd_sc_hd__buf_2
*I *158:X O *D sky130_fd_sc_hd__clkbuf_1
*CAP
1 *170:A 0.000551239
2 *158:X 0.000551239
3 *170:A *173:A 2.49484e-05
4 *170:A *176:A 0.000474055
5 *170:A *32:14 1.91418e-05
6 *170:A *35:14 0
7 *155:C *170:A 0.000153047
8 *157:A *170:A 0.000266479
9 *158:A *170:A 0.000306948
*RES
1 *158:X *170:A 43.975 
*END

*D_NET *31 0.000347039
*CONN
*I *171:A I *D sky130_fd_sc_hd__buf_2
*I *159:Y O *D sky130_fd_sc_hd__a21boi_1
*CAP
1 *171:A 7.4835e-05
2 *159:Y 7.4835e-05
3 *171:A *35:14 0.000129868
4 *25:10 *171:A 6.75007e-05
*RES
1 *159:Y *171:A 29.7786 
*END

*D_NET *32 0.0037373
*CONN
*I *172:A I *D sky130_fd_sc_hd__buf_2
*I *147:Y O *D sky130_fd_sc_hd__nor2_1
*CAP
1 *172:A 0
2 *147:Y 0.000879086
3 *32:14 0.000879086
4 *32:14 *176:A 0.00105848
5 *32:14 *35:14 0.000706914
6 *147:B *32:14 5.33334e-05
7 *169:A *32:14 0.000141254
8 *170:A *32:14 1.91418e-05
*RES
1 *147:Y *32:14 40.8536 
2 *32:14 *172:A 9.3 
*END

*D_NET *33 0.00225673
*CONN
*I *173:A I *D sky130_fd_sc_hd__buf_2
*I *148:Y O *D sky130_fd_sc_hd__xnor2_1
*CAP
1 *173:A 0.000719652
2 *148:Y 0.000719652
3 *173:A *35:14 0
4 *149:A3 *173:A 2.8266e-06
5 *155:C *173:A 0.000247098
6 *158:A *173:A 0.000268528
7 *159:B1_N *173:A 6.16958e-05
8 *170:A *173:A 2.49484e-05
9 *28:31 *173:A 0.000212324
*RES
1 *148:Y *173:A 40.8321 
*END

*D_NET *34 0.00162964
*CONN
*I *174:A I *D sky130_fd_sc_hd__buf_2
*I *152:X O *D sky130_fd_sc_hd__clkbuf_1
*CAP
1 *174:A 0.000756448
2 *152:X 0.000756448
3 *174:A *149:A1 0
4 *174:A *35:14 0
5 *149:A3 *174:A 0
6 *152:A *174:A 0.000116746
*RES
1 *152:X *174:A 37.0643 
*END

*D_NET *35 0.00364838
*CONN
*I *175:A I *D sky130_fd_sc_hd__clkbuf_4
*I *153:X O *D sky130_fd_sc_hd__xor2_1
*CAP
1 *175:A 0
2 *153:X 0.00113947
3 *35:14 0.00113947
4 out[5] *35:14 0
5 *149:A3 *35:14 0
6 *155:C *35:14 0
7 *157:A *35:14 5.16396e-05
8 *169:A *35:14 0.000265447
9 *170:A *35:14 0
10 *171:A *35:14 0.000129868
11 *173:A *35:14 0
12 *174:A *35:14 0
13 *25:10 *35:14 0.000215564
14 *32:14 *35:14 0.000706914
*RES
1 *153:X *35:14 42.8 
2 *35:14 *175:A 9.3 
*END

*D_NET *36 0.00745737
*CONN
*I *156:A1 I *D sky130_fd_sc_hd__o21ai_1
*I *144:C I *D sky130_fd_sc_hd__or4_2
*I *155:B I *D sky130_fd_sc_hd__or3_1
*I *154:A I *D sky130_fd_sc_hd__xor2_1
*I *162:X O *D sky130_fd_sc_hd__buf_1
*CAP
1 *156:A1 3.59657e-05
2 *144:C 0.000223912
3 *155:B 0.000477211
4 *154:A 0.000124109
5 *162:X 0.000608687
6 *36:31 0.000803674
7 *36:29 0.000315559
8 *36:10 0.000909838
9 *144:C *144:A 5.49544e-05
10 *144:C *150:A 5.49544e-05
11 *144:C *150:B 1.93106e-05
12 *144:C *150:C 4.58194e-05
13 *144:C *39:10 8.16002e-05
14 *154:A *42:14 1.24368e-05
15 *155:B *155:A 0.000779417
16 *155:B *42:14 0.000200413
17 *36:29 *42:14 0.000383754
18 *36:31 *42:14 0.000356417
19 *144:D *144:C 0.00075209
20 *147:A *36:10 2.59355e-05
21 *147:B *155:B 8.6642e-05
22 *147:B *36:10 9.48262e-05
23 *147:B *36:29 0.000244178
24 *147:B *36:31 3.90513e-05
25 *23:6 *144:C 7.2118e-05
26 *28:10 *154:A 2.21972e-05
27 *28:10 *36:10 0.000270503
28 *28:10 *36:29 1.91414e-05
29 *28:25 *156:A1 1.58163e-05
30 *28:25 *36:31 0.000261693
31 *28:31 *155:B 3.34295e-05
32 *28:31 *36:31 3.17148e-05
*RES
1 *162:X *36:10 24.9339 
2 *36:10 *154:A 15.8804 
3 *36:10 *36:29 6.27679 
4 *36:29 *36:31 4.67857 
5 *36:31 *155:B 24.3 
6 *36:31 *144:C 21.6393 
7 *36:29 *156:A1 14.3357 
*END

*D_NET *37 0.00542728
*CONN
*I *156:B1 I *D sky130_fd_sc_hd__o21ai_1
*I *144:B I *D sky130_fd_sc_hd__or4_2
*I *155:A I *D sky130_fd_sc_hd__or3_1
*I *163:X O *D sky130_fd_sc_hd__buf_1
*CAP
1 *156:B1 0.000354701
2 *144:B 0
3 *155:A 0.000828849
4 *163:X 0.000425662
5 *37:16 0.00113083
6 *37:10 0.00108235
7 *37:10 *144:A 0.000176234
8 *37:16 *144:A 0.000367382
9 *37:16 *150:C 0
10 *150:D *37:16 0
11 *155:B *155:A 0.000779417
12 *155:C *155:A 0.000228558
13 *158:A *155:A 5.33005e-05
14 *164:A *37:10 0
15 *165:A *37:16 0
*RES
1 *163:X *37:10 21.55 
2 *37:10 *37:16 6.25 
3 *37:16 *155:A 29.9429 
4 *37:16 *144:B 13.8 
5 *37:10 *156:B1 19.2643 
*END

*D_NET *38 0.00381909
*CONN
*I *159:A1 I *D sky130_fd_sc_hd__a21boi_1
*I *144:A I *D sky130_fd_sc_hd__or4_2
*I *164:X O *D sky130_fd_sc_hd__clkbuf_1
*CAP
1 *159:A1 0.00102515
2 *144:A 0.000291919
3 *164:X 0.000123833
4 *38:8 0.0014409
5 *144:A *39:10 2.84109e-05
6 *144:C *144:A 5.49544e-05
7 *159:B1_N *159:A1 0.000310298
8 *37:10 *144:A 0.000176234
9 *37:16 *144:A 0.000367382
*RES
1 *164:X *38:8 11.0857 
2 *38:8 *144:A 25.6393 
3 *38:8 *159:A1 24.2107 
*END

*D_NET *39 0.00480323
*CONN
*I *150:A I *D sky130_fd_sc_hd__or4_1
*I *146:A I *D sky130_fd_sc_hd__and2_1
*I *149:A1 I *D sky130_fd_sc_hd__o31a_1
*I *145:A I *D sky130_fd_sc_hd__nor2_1
*I *165:X O *D sky130_fd_sc_hd__buf_1
*CAP
1 *150:A 4.14642e-05
2 *146:A 0.000110799
3 *149:A1 0.000233508
4 *145:A 0.000122364
5 *165:X 0.000244575
6 *39:29 0.000718075
7 *39:16 0.000821113
8 *39:10 0.000611021
9 *149:A1 *42:14 0
10 *150:A *150:B 4.85049e-06
11 *39:10 *150:C 9.41642e-05
12 *39:16 *149:A2 0
13 *144:A *39:10 2.84109e-05
14 *144:C *150:A 5.49544e-05
15 *144:C *39:10 8.16002e-05
16 *144:D *39:10 1.32552e-05
17 *145:B *145:A 9.58126e-05
18 *145:B *39:16 0.000173804
19 *149:A3 *149:A1 2.16719e-05
20 *150:D *150:A 1.85696e-05
21 *150:D *39:16 4.29471e-05
22 *151:A_N *146:A 0.000176234
23 *151:A_N *149:A1 0.000343203
24 *152:A *146:A 0
25 *152:A *149:A1 0
26 *174:A *149:A1 0
27 *19:8 *39:10 0.000138655
28 *19:10 *39:16 0.000340781
29 *19:36 *146:A 5.52238e-05
30 *20:10 *145:A 6.81704e-05
31 *20:10 *39:16 0
32 *20:10 *39:29 0.000148002
*RES
1 *165:X *39:10 18.7196 
2 *39:10 *39:16 11.9911 
3 *39:16 *145:A 11.9071 
4 *39:16 *39:29 11.1964 
5 *39:29 *149:A1 19.0857 
6 *39:29 *146:A 16.5857 
7 *39:10 *150:A 14.9161 
*END

*D_NET *40 0.00484923
*CONN
*I *148:A I *D sky130_fd_sc_hd__xnor2_1
*I *150:B I *D sky130_fd_sc_hd__or4_1
*I *149:A2 I *D sky130_fd_sc_hd__o31a_1
*I *166:X O *D sky130_fd_sc_hd__buf_1
*CAP
1 *148:A 2.16084e-05
2 *150:B 0.000160276
3 *149:A2 0.00044514
4 *166:X 0.000618384
5 *40:21 0.000260711
6 *40:8 0.00114235
7 *148:A *42:14 8.07951e-05
8 *149:A2 *149:B1 0.000446603
9 *149:A2 *42:14 0.000580023
10 *40:21 *42:14 0.000268521
11 *144:C *150:B 1.93106e-05
12 *147:A *148:A 3.51442e-05
13 *150:A *150:B 4.85049e-06
14 *19:27 *40:8 0.000121267
15 *20:10 *148:A 4.66511e-05
16 *20:10 *149:A2 0.000198698
17 *20:10 *40:21 0.000259271
18 *23:6 *150:B 0.000139625
19 *39:16 *149:A2 0
*RES
1 *166:X *40:8 20.9071 
2 *40:8 *149:A2 26.05 
3 *40:8 *40:21 3.46429 
4 *40:21 *150:B 15.9786 
5 *40:21 *148:A 14.8357 
*END

*D_NET *41 0.00427577
*CONN
*I *149:B1 I *D sky130_fd_sc_hd__o31a_1
*I *150:C I *D sky130_fd_sc_hd__or4_1
*I *167:X O *D sky130_fd_sc_hd__clkbuf_1
*CAP
1 *149:B1 0.000375155
2 *150:C 0.000620003
3 *167:X 0.000159696
4 *41:6 0.00115485
5 *149:B1 *42:14 0.000444912
6 *41:6 *42:14 0.000228508
7 *144:C *150:C 4.58194e-05
8 *145:B *150:C 0.000194217
9 *149:A2 *149:B1 0.000446603
10 *150:D *150:C 4.42509e-05
11 *151:A_N *149:B1 0.00014183
12 *19:10 *150:C 0.000325756
13 *37:16 *150:C 0
14 *39:10 *150:C 9.41642e-05
*RES
1 *167:X *41:6 12.7107 
2 *41:6 *150:C 30.9071 
3 *41:6 *149:B1 18.7821 
*END

*D_NET *42 0.0059017
*CONN
*I *153:A I *D sky130_fd_sc_hd__xor2_1
*I *168:X O *D sky130_fd_sc_hd__buf_1
*CAP
1 *153:A 0
2 *168:X 0.00122905
3 *42:14 0.00122905
4 *147:A *42:14 0.000157948
5 *147:B *42:14 8.08376e-05
6 *148:A *42:14 8.07951e-05
7 *149:A1 *42:14 0
8 *149:A2 *42:14 0.000580023
9 *149:B1 *42:14 0.000444912
10 *152:A *42:14 0
11 *154:A *42:14 1.24368e-05
12 *155:B *42:14 0.000200413
13 *169:A *42:14 0.000169383
14 *28:10 *42:14 3.51442e-05
15 *28:14 *42:14 0.000444507
16 *36:29 *42:14 0.000383754
17 *36:31 *42:14 0.000356417
18 *40:21 *42:14 0.000268521
19 *41:6 *42:14 0.000228508
*RES
1 *168:X *42:14 49.7821 
2 *42:14 *153:A 9.3 
*END

*D_NET *43 0.00281156
*CONN
*I *176:A I *D sky130_fd_sc_hd__buf_2
*I *160:X O *D sky130_fd_sc_hd__clkbuf_1
*CAP
1 *176:A 0.000636484
2 *160:X 0.000636484
3 *155:C *176:A 6.05161e-06
4 *169:A *176:A 0
5 *170:A *176:A 0.000474055
6 *32:14 *176:A 0.00105848
*RES
1 *160:X *176:A 45.1714 
*END
