*SPEF "ieee 1481-1999"
*DESIGN "twos_complement"
*DATE "14:34:50 Saturday April 26, 2025"
*VENDOR "The OpenROAD Project"
*PROGRAM "OpenROAD"
*VERSION "b16bda7e82721d10566ff7e2b68f1ff0be9f9e38"
*DESIGN_FLOW "NAME_SCOPE LOCAL" "PIN_CAP NONE"
*DIVIDER /
*DELIMITER :
*BUS_DELIMITER []
*T_UNIT 1 NS
*C_UNIT 1 PF
*R_UNIT 1 OHM
*L_UNIT 1 HENRY

*NAME_MAP
*3 in[0]
*4 in[1]
*5 in[2]
*6 in[3]
*7 in[4]
*8 in[5]
*9 in[6]
*10 in[7]
*11 out[0]
*12 out[1]
*13 out[2]
*14 out[3]
*15 out[4]
*16 out[5]
*17 out[6]
*18 out[7]
*19 _00_
*20 _01_
*21 _02_
*22 _03_
*23 _04_
*24 _05_
*25 _06_
*26 _07_
*27 _08_
*28 net1
*29 net10
*30 net11
*31 net12
*32 net13
*33 net14
*34 net15
*35 net16
*36 net2
*37 net3
*38 net4
*39 net5
*40 net6
*41 net7
*42 net8
*43 net9
*44 FILLER_0_0_21
*45 FILLER_0_0_27
*46 FILLER_0_0_29
*47 FILLER_0_0_37
*48 FILLER_0_0_9
*49 FILLER_0_10_12
*50 FILLER_0_10_16
*51 FILLER_0_10_29
*52 FILLER_0_10_41
*53 FILLER_0_10_6
*54 FILLER_0_11_12
*55 FILLER_0_11_24
*56 FILLER_0_11_3
*57 FILLER_0_11_36
*58 FILLER_0_11_40
*59 FILLER_0_12_16
*60 FILLER_0_12_29
*61 FILLER_0_12_37
*62 FILLER_0_1_11
*63 FILLER_0_1_23
*64 FILLER_0_1_3
*65 FILLER_0_1_35
*66 FILLER_0_1_47
*67 FILLER_0_2_15
*68 FILLER_0_2_27
*69 FILLER_0_2_3
*70 FILLER_0_2_34
*71 FILLER_0_2_46
*72 FILLER_0_3_15
*73 FILLER_0_3_21
*74 FILLER_0_3_9
*75 FILLER_0_4_15
*76 FILLER_0_4_27
*77 FILLER_0_4_3
*78 FILLER_0_4_35
*79 FILLER_0_5_18
*80 FILLER_0_5_22
*81 FILLER_0_5_26
*82 FILLER_0_5_38
*83 FILLER_0_5_45
*84 FILLER_0_5_6
*85 FILLER_0_6_15
*86 FILLER_0_6_27
*87 FILLER_0_6_29
*88 FILLER_0_6_3
*89 FILLER_0_6_41
*90 FILLER_0_6_47
*91 FILLER_0_7_15
*92 FILLER_0_7_27
*93 FILLER_0_7_3
*94 FILLER_0_7_39
*95 FILLER_0_7_47
*96 FILLER_0_8_18
*97 FILLER_0_8_26
*98 FILLER_0_8_29
*99 FILLER_0_8_34
*100 FILLER_0_8_40
*101 FILLER_0_8_6
*102 FILLER_0_9_19
*103 FILLER_0_9_27
*104 FILLER_0_9_36
*105 FILLER_0_9_7
*106 PHY_EDGE_ROW_0_Left_13
*107 PHY_EDGE_ROW_0_Right_0
*108 PHY_EDGE_ROW_10_Left_23
*109 PHY_EDGE_ROW_10_Right_10
*110 PHY_EDGE_ROW_11_Left_24
*111 PHY_EDGE_ROW_11_Right_11
*112 PHY_EDGE_ROW_12_Left_25
*113 PHY_EDGE_ROW_12_Right_12
*114 PHY_EDGE_ROW_1_Left_14
*115 PHY_EDGE_ROW_1_Right_1
*116 PHY_EDGE_ROW_2_Left_15
*117 PHY_EDGE_ROW_2_Right_2
*118 PHY_EDGE_ROW_3_Left_16
*119 PHY_EDGE_ROW_3_Right_3
*120 PHY_EDGE_ROW_4_Left_17
*121 PHY_EDGE_ROW_4_Right_4
*122 PHY_EDGE_ROW_5_Left_18
*123 PHY_EDGE_ROW_5_Right_5
*124 PHY_EDGE_ROW_6_Left_19
*125 PHY_EDGE_ROW_6_Right_6
*126 PHY_EDGE_ROW_7_Left_20
*127 PHY_EDGE_ROW_7_Right_7
*128 PHY_EDGE_ROW_8_Left_21
*129 PHY_EDGE_ROW_8_Right_8
*130 PHY_EDGE_ROW_9_Left_22
*131 PHY_EDGE_ROW_9_Right_9
*132 TAP_TAPCELL_ROW_0_26
*133 TAP_TAPCELL_ROW_10_31
*134 TAP_TAPCELL_ROW_12_32
*135 TAP_TAPCELL_ROW_2_27
*136 TAP_TAPCELL_ROW_4_28
*137 TAP_TAPCELL_ROW_6_29
*138 TAP_TAPCELL_ROW_8_30
*139 _09_
*140 _10_
*141 _11_
*142 _12_
*143 _13_
*144 _14_
*145 _15_
*146 _16_
*147 _17_
*148 _18_
*149 _19_
*150 _20_
*151 _21_
*152 _22_
*153 _23_
*154 _24_
*155 _25_
*156 input1
*157 input2
*158 input3
*159 input4
*160 input5
*161 input6
*162 input7
*163 input8
*164 output10
*165 output11
*166 output12
*167 output13
*168 output14
*169 output15
*170 output16
*171 output9

*PORTS
in[0] I
in[1] I
in[2] I
in[3] I
in[4] I
in[5] I
in[6] I
in[7] I
out[0] O
out[1] O
out[2] O
out[3] O
out[4] O
out[5] O
out[6] O
out[7] O

*D_NET *3 0.00106929
*CONN
*P in[0] I
*I *156:A I *D sky130_fd_sc_hd__dlymetal6s2s_1
*CAP
1 in[0] 0.000529547
2 *156:A 0.000529547
3 *156:A *157:A 1.01912e-05
*RES
1 in[0] *156:A 24.1943 
*END

*D_NET *4 0.00115507
*CONN
*P in[1] I
*I *157:A I *D sky130_fd_sc_hd__buf_1
*CAP
1 in[1] 0.000572439
2 *157:A 0.000572439
3 *157:A *158:A 0
4 *157:A *28:12 0
5 *156:A *157:A 1.01912e-05
*RES
1 in[1] *157:A 24.068 
*END

*D_NET *5 0.000583652
*CONN
*P in[2] I
*I *158:A I *D sky130_fd_sc_hd__buf_1
*CAP
1 in[2] 0.000291826
2 *158:A 0.000291826
3 *158:A *159:A 0
4 *157:A *158:A 0
*RES
1 in[2] *158:A 20.4803 
*END

*D_NET *6 0.000705495
*CONN
*P in[3] I
*I *159:A I *D sky130_fd_sc_hd__buf_1
*CAP
1 in[3] 0.000352747
2 *159:A 0.000352747
3 *159:A *150:B 0
4 *159:A *160:A 0
5 *158:A *159:A 0
*RES
1 in[3] *159:A 21.6946 
*END

*D_NET *7 0.000616374
*CONN
*P in[4] I
*I *160:A I *D sky130_fd_sc_hd__buf_1
*CAP
1 in[4] 0.000308187
2 *160:A 0.000308187
3 *160:A *150:B 0
4 *160:A *161:A 0
5 *159:A *160:A 0
*RES
1 in[4] *160:A 20.7838 
*END

*D_NET *8 0.00105444
*CONN
*P in[5] I
*I *161:A I *D sky130_fd_sc_hd__buf_1
*CAP
1 in[5] 0.000370977
2 *161:A 0.000370977
3 *161:A *147:A 0.000169635
4 *161:A *150:B 0.000142856
5 *161:A *162:A 0
6 *161:A *34:18 0
7 *160:A *161:A 0
*RES
1 in[5] *161:A 23.3553 
*END

*D_NET *9 0.000563768
*CONN
*P in[6] I
*I *162:A I *D sky130_fd_sc_hd__buf_1
*CAP
1 in[6] 0.000281884
2 *162:A 0.000281884
3 *162:A *163:A 0
4 *161:A *162:A 0
*RES
1 in[6] *162:A 20.4803 
*END

*D_NET *10 0.00123174
*CONN
*P in[7] I
*I *163:A I *D sky130_fd_sc_hd__buf_1
*CAP
1 in[7] 0.000615872
2 *163:A 0.000615872
3 *162:A *163:A 0
*RES
1 in[7] *163:A 25.0176 
*END

*D_NET *11 0.00116601
*CONN
*P out[0] O
*I *171:X O *D sky130_fd_sc_hd__buf_2
*CAP
1 out[0] 0.000583005
2 *171:X 0.000583005
3 out[0] out[1] 0
*RES
1 *171:X out[0] 23.8754 
*END

*D_NET *12 0.000438356
*CONN
*P out[1] O
*I *164:X O *D sky130_fd_sc_hd__buf_2
*CAP
1 out[1] 0.000219178
2 *164:X 0.000219178
3 out[1] out[2] 0
4 out[0] out[1] 0
*RES
1 *164:X out[1] 18.1229 
*END

*D_NET *13 0.000440315
*CONN
*P out[2] O
*I *165:X O *D sky130_fd_sc_hd__buf_2
*CAP
1 out[2] 0.000215903
2 *165:X 0.000215903
3 out[2] out[3] 0
4 out[2] *139:A 8.50795e-06
5 out[1] out[2] 0
*RES
1 *165:X out[2] 18.1229 
*END

*D_NET *14 0.000598041
*CONN
*P out[3] O
*I *166:X O *D sky130_fd_sc_hd__buf_2
*CAP
1 out[3] 0.000267648
2 *166:X 0.000267648
3 out[3] out[4] 0
4 out[3] *166:A 6.27457e-05
5 out[2] out[3] 0
*RES
1 *166:X out[3] 19.3371 
*END

*D_NET *15 0.000520543
*CONN
*P out[4] O
*I *167:X O *D sky130_fd_sc_hd__buf_2
*CAP
1 out[4] 0.000260272
2 *167:X 0.000260272
3 out[4] out[5] 0
4 out[4] *167:A 0
5 out[3] out[4] 0
*RES
1 *167:X out[4] 18.73 
*END

*D_NET *16 0.000599297
*CONN
*P out[5] O
*I *168:X O *D sky130_fd_sc_hd__buf_2
*CAP
1 out[5] 0.000268276
2 *168:X 0.000268276
3 out[5] out[6] 0
4 out[5] *168:A 6.27457e-05
5 out[4] out[5] 0
*RES
1 *168:X out[5] 19.3371 
*END

*D_NET *17 0.000777111
*CONN
*P out[6] O
*I *169:X O *D sky130_fd_sc_hd__buf_2
*CAP
1 out[6] 0.000388555
2 *169:X 0.000388555
3 out[6] out[7] 0
4 out[5] out[6] 0
*RES
1 *169:X out[6] 18.5553 
*END

*D_NET *18 0.00103775
*CONN
*P out[7] O
*I *170:X O *D sky130_fd_sc_hd__clkbuf_4
*CAP
1 out[7] 0.000518877
2 *170:X 0.000518877
3 out[6] out[7] 0
*RES
1 *170:X out[7] 24.4258 
*END

*D_NET *19 0.00587973
*CONN
*I *140:B I *D sky130_fd_sc_hd__nor2_1
*I *154:B1_N I *D sky130_fd_sc_hd__a21boi_1
*I *145:D I *D sky130_fd_sc_hd__or4_1
*I *141:B I *D sky130_fd_sc_hd__and2_1
*I *144:A3 I *D sky130_fd_sc_hd__o31a_1
*I *139:X O *D sky130_fd_sc_hd__or4_2
*CAP
1 *140:B 0
2 *154:B1_N 6.56809e-05
3 *145:D 0.000355097
4 *141:B 6.20081e-05
5 *144:A3 0.000111466
6 *139:X 0.000430382
7 *19:35 0.00049304
8 *19:31 0.000368586
9 *19:25 0.000331316
10 *19:14 0.000646194
11 *141:B *148:A 7.83366e-05
12 *141:B *170:A 7.83366e-05
13 *144:A3 *144:A1 0.000184745
14 *144:A3 *146:A_N 5.33334e-05
15 *145:D *145:A 9.41642e-05
16 *145:D *145:C 2.59355e-05
17 *145:D *148:B 6.42095e-05
18 *145:D *23:8 1.98839e-05
19 *154:B1_N *154:A1 4.87953e-05
20 *154:B1_N *166:A 1.74352e-05
21 *19:14 *139:A 0.0003625
22 *19:14 *139:C 6.05161e-06
23 *19:14 *144:A1 0.000106811
24 *19:14 *146:A_N 1.98839e-05
25 *19:14 *165:A 0
26 *19:14 *171:A 3.69697e-05
27 *19:25 *144:A1 2.49484e-05
28 *19:25 *146:A_N 0.000150618
29 *19:25 *165:A 0
30 *19:31 *142:B 0.000584146
31 *19:31 *146:A_N 0.000584153
32 *19:31 *154:A1 2.89016e-05
33 *19:31 *154:A2 9.41642e-05
34 *19:31 *39:38 4.87854e-05
35 *19:35 *146:A_N 4.56494e-05
36 *19:35 *148:A 1.31516e-05
37 *19:35 *167:A 0.000202835
38 *19:35 *170:A 1.18064e-05
39 *19:35 *39:38 2.94103e-05
*RES
1 *139:X *19:14 26.6214 
2 *19:14 *144:A3 11.8893 
3 *19:14 *19:25 7.05357 
4 *19:25 *19:31 13.6786 
5 *19:31 *19:35 7.35714 
6 *19:35 *141:B 15.7464 
7 *19:35 *145:D 18.8536 
8 *19:31 *154:B1_N 10.6571 
9 *19:25 *140:B 13.8 
*END

*D_NET *20 0.00551547
*CONN
*I *142:A I *D sky130_fd_sc_hd__nor2_1
*I *143:B I *D sky130_fd_sc_hd__xnor2_1
*I *140:Y O *D sky130_fd_sc_hd__nor2_1
*CAP
1 *142:A 1.01968e-05
2 *143:B 0.000846385
3 *140:Y 0.000235027
4 *20:8 0.00109161
5 *142:A *144:A2 5.83304e-05
6 *142:A *26:14 4.97876e-05
7 *143:B *143:A 0.000578673
8 *143:B *144:A2 0.000646148
9 *143:B *152:A 5.43443e-05
10 *143:B *154:A2 5.95282e-05
11 *143:B *168:A 0.000183027
12 *143:B *25:12 2.04825e-05
13 *143:B *26:14 0.00110514
14 *143:B *34:18 0
15 *143:B *40:25 0.000200413
16 *143:B *41:10 0.000100735
17 *20:8 *167:A 0.000263524
18 *20:8 *38:10 1.21258e-05
*RES
1 *140:Y *20:8 16.8 
2 *20:8 *143:B 40.3 
3 *20:8 *142:A 14.5321 
*END

*D_NET *21 0.00248955
*CONN
*I *142:B I *D sky130_fd_sc_hd__nor2_1
*I *141:X O *D sky130_fd_sc_hd__and2_1
*CAP
1 *142:B 0.000429917
2 *141:X 0.000429917
3 *142:B *141:A 7.48091e-05
4 *142:B *144:A2 0
5 *142:B *146:A_N 0.000185456
6 *142:B *146:B 0.000222885
7 *142:B *148:A 7.80714e-06
8 *142:B *154:A2 2.6949e-05
9 *142:B *165:A 0.000185077
10 *142:B *167:A 0.000140933
11 *142:B *38:10 0.000140933
12 *142:B *39:10 6.07232e-05
13 *19:31 *142:B 0.000584146
*RES
1 *141:X *142:B 42.5821 
*END

*D_NET *22 0.00285192
*CONN
*I *146:A_N I *D sky130_fd_sc_hd__and2b_1
*I *144:X O *D sky130_fd_sc_hd__o31a_1
*CAP
1 *146:A_N 0.000433064
2 *144:X 0.000433064
3 *146:A_N *144:A1 0.000140368
4 *146:A_N *148:A 0.000174812
5 *146:A_N *39:38 0.000631519
6 *142:B *146:A_N 0.000185456
7 *144:A3 *146:A_N 5.33334e-05
8 *19:14 *146:A_N 1.98839e-05
9 *19:25 *146:A_N 0.000150618
10 *19:31 *146:A_N 0.000584153
11 *19:35 *146:A_N 4.56494e-05
*RES
1 *144:X *146:A_N 42.7429 
*END

*D_NET *23 0.000960769
*CONN
*I *148:B I *D sky130_fd_sc_hd__xor2_1
*I *146:B I *D sky130_fd_sc_hd__and2b_1
*I *145:X O *D sky130_fd_sc_hd__or4_1
*CAP
1 *148:B 7.34954e-05
2 *146:B 8.13886e-05
3 *145:X 5.54742e-05
4 *23:8 0.000210358
5 *146:B *141:A 0.000148911
6 *146:B *148:A 0
7 *146:B *154:A2 4.00121e-05
8 *146:B *39:10 3.17148e-05
9 *23:8 *145:A 1.24368e-05
10 *142:B *146:B 0.000222885
11 *145:D *148:B 6.42095e-05
12 *145:D *23:8 1.98839e-05
*RES
1 *145:X *23:8 10.2643 
2 *23:8 *146:B 21.4607 
3 *23:8 *148:B 10.6571 
*END

*D_NET *24 0.00240736
*CONN
*I *147:A I *D sky130_fd_sc_hd__clkbuf_1
*I *146:X O *D sky130_fd_sc_hd__and2b_1
*CAP
1 *147:A 0.000464055
2 *146:X 0.000464055
3 *147:A *150:A 0.000100261
4 *147:A *150:B 0.000422986
5 *147:A *150:C 2.44318e-05
6 *147:A *25:12 0.000523458
7 *147:A *40:6 0.000101111
8 *147:A *40:25 0.00013737
9 *161:A *147:A 0.000169635
*RES
1 *146:X *147:A 32.7607 
*END

*D_NET *25 0.00310259
*CONN
*I *154:A2 I *D sky130_fd_sc_hd__a21boi_1
*I *152:A I *D sky130_fd_sc_hd__and2_1
*I *150:X O *D sky130_fd_sc_hd__or3_1
*CAP
1 *154:A2 0.000297811
2 *152:A 6.96775e-05
3 *150:X 0.000420116
4 *25:12 0.000787604
5 *152:A *148:A 0
6 *152:A *34:18 0
7 *154:A2 *141:A 0.000150618
8 *154:A2 *144:A2 0.000152333
9 *154:A2 *148:A 0
10 *154:A2 *165:A 6.05161e-06
11 *154:A2 *39:6 1.58163e-05
12 *154:A2 *39:10 0.000142082
13 *154:A2 *39:38 4.35567e-05
14 *154:A2 *40:25 0.000197984
15 *142:B *154:A2 2.6949e-05
16 *143:B *152:A 5.43443e-05
17 *143:B *154:A2 5.95282e-05
18 *143:B *25:12 2.04825e-05
19 *146:B *154:A2 4.00121e-05
20 *147:A *25:12 0.000523458
21 *19:31 *154:A2 9.41642e-05
*RES
1 *150:X *25:12 19.6661 
2 *25:12 *152:A 15.2911 
3 *25:12 *154:A2 22.4339 
*END

*D_NET *26 0.00527575
*CONN
*I *152:B I *D sky130_fd_sc_hd__and2_1
*I *151:Y O *D sky130_fd_sc_hd__o21ai_1
*CAP
1 *152:B 0
2 *151:Y 0.00123282
3 *26:14 0.00123282
4 *26:14 *144:A2 7.252e-05
5 *26:14 *144:B1 0.000912172
6 *26:14 *150:A 0.000205232
7 *26:14 *34:18 2.59355e-05
8 *26:14 *37:12 3.18676e-05
9 *26:14 *41:10 0.00040746
10 *142:A *26:14 4.97876e-05
11 *143:B *26:14 0.00110514
*RES
1 *151:Y *26:14 45.7464 
2 *26:14 *152:B 9.3 
*END

*D_NET *27 0.00142962
*CONN
*I *153:A I *D sky130_fd_sc_hd__clkbuf_1
*I *152:X O *D sky130_fd_sc_hd__and2_1
*CAP
1 *153:A 0.000542909
2 *152:X 0.000542909
3 *153:A *143:A 6.95112e-05
4 *153:A *144:B1 0
5 *153:A *150:A 0
6 *153:A *34:18 0.000274288
7 *153:A *41:10 0
*RES
1 *152:X *153:A 36.9929 
*END

*D_NET *28 0.00692602
*CONN
*I *139:D I *D sky130_fd_sc_hd__or4_2
*I *155:A I *D sky130_fd_sc_hd__clkbuf_1
*I *151:A2 I *D sky130_fd_sc_hd__o21ai_1
*I *150:C I *D sky130_fd_sc_hd__or3_1
*I *149:B I *D sky130_fd_sc_hd__xor2_1
*I *156:X O *D sky130_fd_sc_hd__dlymetal6s2s_1
*CAP
1 *139:D 0.000438306
2 *155:A 0
3 *151:A2 0.000166813
4 *150:C 0.000643601
5 *149:B 0
6 *156:X 0.000173267
7 *28:29 0.000935016
8 *28:27 0.000286125
9 *28:23 0.000663758
10 *28:12 0.000237196
11 *139:D *139:B 1.21289e-05
12 *139:D *139:C 0.00114592
13 *139:D *164:A 4.08637e-05
14 *139:D *36:25 9.41642e-05
15 *150:C *150:A 0.00111929
16 *150:C *150:B 0
17 *150:C *40:6 4.82947e-05
18 *151:A2 *150:A 0.000315987
19 *151:A2 *37:12 5.52302e-05
20 *28:12 *139:B 5.57989e-05
21 *28:12 *164:A 0
22 *28:12 *36:25 2.39313e-05
23 *28:12 *36:31 6.71612e-05
24 *28:23 *139:B 5.61117e-05
25 *28:23 *164:A 9.83388e-05
26 *28:23 *36:25 0.000193053
27 *28:27 *139:B 0
28 *28:27 *164:A 3.12359e-05
29 *28:27 *36:31 0
30 *28:27 *37:12 0
31 *28:29 *37:12 0
32 *147:A *150:C 2.44318e-05
33 *157:A *28:12 0
*RES
1 *156:X *28:12 21.8 
2 *28:12 *149:B 9.3 
3 *28:12 *28:23 2.73214 
4 *28:23 *28:27 7.35714 
5 *28:27 *28:29 2.25 
6 *28:29 *150:C 30.1036 
7 *28:29 *151:A2 17.6214 
8 *28:27 *155:A 13.8 
9 *28:23 *139:D 20.925 
*END

*D_NET *29 0.00237501
*CONN
*I *164:A I *D sky130_fd_sc_hd__buf_2
*I *149:X O *D sky130_fd_sc_hd__xor2_1
*CAP
1 *164:A 0.000991334
2 *149:X 0.000991334
3 *164:A *139:B 7.37131e-05
4 *164:A *139:C 5.41794e-05
5 *164:A *36:8 9.40167e-05
6 *139:D *164:A 4.08637e-05
7 *28:12 *164:A 0
8 *28:23 *164:A 9.83388e-05
9 *28:27 *164:A 3.12359e-05
*RES
1 *149:X *164:A 44.0821 
*END

*D_NET *30 0.00297185
*CONN
*I *165:A I *D sky130_fd_sc_hd__buf_2
*I *153:X O *D sky130_fd_sc_hd__clkbuf_1
*CAP
1 *165:A 0.000972806
2 *153:X 0.000972806
3 *165:A *144:A2 0.000678877
4 *165:A *144:B1 0
5 *165:A *171:A 0.000123902
6 *165:A *39:6 3.23281e-05
7 *142:B *165:A 0.000185077
8 *154:A2 *165:A 6.05161e-06
9 *19:14 *165:A 0
10 *19:25 *165:A 0
*RES
1 *153:X *165:A 47.0107 
*END

*D_NET *31 0.00133585
*CONN
*I *166:A I *D sky130_fd_sc_hd__buf_2
*I *154:Y O *D sky130_fd_sc_hd__a21boi_1
*CAP
1 *166:A 0.000321416
2 *154:Y 0.000321416
3 *166:A *154:A1 0.00061284
4 out[3] *166:A 6.27457e-05
5 *154:B1_N *166:A 1.74352e-05
*RES
1 *154:Y *166:A 35.4571 
*END

*D_NET *32 0.00252393
*CONN
*I *167:A I *D sky130_fd_sc_hd__buf_2
*I *142:Y O *D sky130_fd_sc_hd__nor2_1
*CAP
1 *167:A 0.000508393
2 *142:Y 0.000508393
3 *167:A *154:A1 0.000512608
4 *167:A *170:A 3.34366e-05
5 *167:A *38:10 0.000148293
6 *167:A *39:38 0.000205517
7 out[4] *167:A 0
8 *142:B *167:A 0.000140933
9 *19:35 *167:A 0.000202835
10 *20:8 *167:A 0.000263524
*RES
1 *142:Y *167:A 42.3143 
*END

*D_NET *33 0.00333595
*CONN
*I *168:A I *D sky130_fd_sc_hd__buf_2
*I *143:Y O *D sky130_fd_sc_hd__xnor2_1
*CAP
1 *168:A 0.00124996
2 *143:Y 0.00124996
3 *168:A *143:A 0.000242918
4 *168:A *170:A 0.000347347
5 out[5] *168:A 6.27457e-05
6 *143:B *168:A 0.000183027
*RES
1 *143:Y *168:A 46.0643 
*END

*D_NET *34 0.00298818
*CONN
*I *169:A I *D sky130_fd_sc_hd__buf_2
*I *147:X O *D sky130_fd_sc_hd__clkbuf_1
*CAP
1 *169:A 0
2 *147:X 0.00115993
3 *34:18 0.00115993
4 *34:18 *148:A 0.000368096
5 *34:18 *170:A 0
6 *34:18 *41:10 0
7 *143:B *34:18 0
8 *152:A *34:18 0
9 *153:A *34:18 0.000274288
10 *161:A *34:18 0
11 *26:14 *34:18 2.59355e-05
*RES
1 *147:X *34:18 47.9071 
2 *34:18 *169:A 9.3 
*END

*D_NET *35 0.00141021
*CONN
*I *170:A I *D sky130_fd_sc_hd__clkbuf_4
*I *148:X O *D sky130_fd_sc_hd__xor2_1
*CAP
1 *170:A 0.000469643
2 *148:X 0.000469643
3 *170:A *148:A 0
4 *141:B *170:A 7.83366e-05
5 *167:A *170:A 3.34366e-05
6 *168:A *170:A 0.000347347
7 *19:35 *170:A 1.18064e-05
8 *34:18 *170:A 0
*RES
1 *148:X *170:A 37.7429 
*END

*D_NET *36 0.00722004
*CONN
*I *149:A I *D sky130_fd_sc_hd__xor2_1
*I *151:A1 I *D sky130_fd_sc_hd__o21ai_1
*I *150:B I *D sky130_fd_sc_hd__or3_1
*I *139:C I *D sky130_fd_sc_hd__or4_2
*I *157:X O *D sky130_fd_sc_hd__buf_1
*CAP
1 *149:A 0
2 *151:A1 0
3 *150:B 0.00126571
4 *139:C 0.000233383
5 *157:X 5.57633e-05
6 *36:31 0.00158115
7 *36:25 0.000512111
8 *36:8 0.00048581
9 *139:C *139:B 0.000635057
10 *150:B *37:12 1.99099e-05
11 *36:31 *139:B 4.97685e-05
12 *36:31 *37:12 0.000137054
13 *139:D *139:C 0.00114592
14 *139:D *36:25 9.41642e-05
15 *147:A *150:B 0.000422986
16 *150:C *150:B 0
17 *159:A *150:B 0
18 *160:A *150:B 0
19 *161:A *150:B 0.000142856
20 *164:A *139:C 5.41794e-05
21 *164:A *36:8 9.40167e-05
22 *19:14 *139:C 6.05161e-06
23 *28:12 *36:25 2.39313e-05
24 *28:12 *36:31 6.71612e-05
25 *28:23 *36:25 0.000193053
26 *28:27 *36:31 0
*RES
1 *157:X *36:8 15.1393 
2 *36:8 *139:C 25.7464 
3 *36:8 *36:25 8.33929 
4 *36:25 *36:31 11.25 
5 *36:31 *150:B 35.1214 
6 *36:31 *151:A1 13.8 
7 *36:25 *149:A 9.3 
*END

*D_NET *37 0.00675938
*CONN
*I *139:B I *D sky130_fd_sc_hd__or4_2
*I *150:A I *D sky130_fd_sc_hd__or3_1
*I *151:B1 I *D sky130_fd_sc_hd__o21ai_1
*I *158:X O *D sky130_fd_sc_hd__buf_1
*CAP
1 *139:B 0.00109443
2 *150:A 0.000694909
3 *151:B1 0
4 *158:X 0
5 *37:12 0.000843588
6 *37:6 0.00124311
7 *150:A *143:A 0
8 *150:A *40:6 1.59373e-05
9 *139:C *139:B 0.000635057
10 *139:D *139:B 1.21289e-05
11 *147:A *150:A 0.000100261
12 *150:B *37:12 1.99099e-05
13 *150:C *150:A 0.00111929
14 *151:A2 *150:A 0.000315987
15 *151:A2 *37:12 5.52302e-05
16 *153:A *150:A 0
17 *164:A *139:B 7.37131e-05
18 *26:14 *150:A 0.000205232
19 *26:14 *37:12 3.18676e-05
20 *28:12 *139:B 5.57989e-05
21 *28:23 *139:B 5.61117e-05
22 *28:27 *139:B 0
23 *28:27 *37:12 0
24 *28:29 *37:12 0
25 *36:31 *139:B 4.97685e-05
26 *36:31 *37:12 0.000137054
*RES
1 *158:X *37:6 13.8 
2 *37:6 *37:12 8.5 
3 *37:12 *151:B1 9.3 
4 *37:12 *150:A 37.7643 
5 *37:6 *139:B 29.7464 
*END

*D_NET *38 0.00508711
*CONN
*I *139:A I *D sky130_fd_sc_hd__or4_2
*I *154:A1 I *D sky130_fd_sc_hd__a21boi_1
*I *159:X O *D sky130_fd_sc_hd__buf_1
*CAP
1 *139:A 0.000358072
2 *154:A1 0.000219433
3 *159:X 0.00101641
4 *38:10 0.00159392
5 *139:A *144:A1 0
6 *139:A *171:A 2.37761e-05
7 *154:A1 *144:A1 0
8 *154:A1 *39:38 0
9 out[2] *139:A 8.50795e-06
10 *142:B *38:10 0.000140933
11 *154:B1_N *154:A1 4.87953e-05
12 *166:A *154:A1 0.00061284
13 *167:A *154:A1 0.000512608
14 *167:A *38:10 0.000148293
15 *19:14 *139:A 0.0003625
16 *19:31 *154:A1 2.89016e-05
17 *20:8 *38:10 1.21258e-05
*RES
1 *159:X *38:10 30.5679 
2 *38:10 *154:A1 22.2643 
3 *38:10 *139:A 21.7464 
*END

*D_NET *39 0.00639754
*CONN
*I *144:A1 I *D sky130_fd_sc_hd__o31a_1
*I *140:A I *D sky130_fd_sc_hd__nor2_1
*I *145:A I *D sky130_fd_sc_hd__or4_1
*I *141:A I *D sky130_fd_sc_hd__and2_1
*I *160:X O *D sky130_fd_sc_hd__buf_1
*CAP
1 *144:A1 0.000235792
2 *140:A 0
3 *145:A 4.87873e-05
4 *141:A 0.00029538
5 *160:X 0.00108441
6 *39:38 0.000610306
7 *39:10 0.00041442
8 *39:6 0.00152918
9 *139:A *144:A1 0
10 *142:B *141:A 7.48091e-05
11 *142:B *39:10 6.07232e-05
12 *144:A3 *144:A1 0.000184745
13 *145:D *145:A 9.41642e-05
14 *146:A_N *144:A1 0.000140368
15 *146:A_N *39:38 0.000631519
16 *146:B *141:A 0.000148911
17 *146:B *39:10 3.17148e-05
18 *154:A1 *144:A1 0
19 *154:A1 *39:38 0
20 *154:A2 *141:A 0.000150618
21 *154:A2 *39:6 1.58163e-05
22 *154:A2 *39:10 0.000142082
23 *154:A2 *39:38 4.35567e-05
24 *165:A *39:6 3.23281e-05
25 *167:A *39:38 0.000205517
26 *19:14 *144:A1 0.000106811
27 *19:25 *144:A1 2.49484e-05
28 *19:31 *39:38 4.87854e-05
29 *19:35 *39:38 2.94103e-05
30 *23:8 *145:A 1.24368e-05
*RES
1 *160:X *39:6 21.3357 
2 *39:6 *39:10 6.44643 
3 *39:10 *141:A 19.5857 
4 *39:10 *145:A 14.7464 
5 *39:6 *39:38 14.6964 
6 *39:38 *140:A 13.8 
7 *39:38 *144:A1 19.2464 
*END

*D_NET *40 0.00629366
*CONN
*I *144:A2 I *D sky130_fd_sc_hd__o31a_1
*I *145:B I *D sky130_fd_sc_hd__or4_1
*I *143:A I *D sky130_fd_sc_hd__xnor2_1
*I *161:X O *D sky130_fd_sc_hd__buf_1
*CAP
1 *144:A2 0.000244036
2 *145:B 0
3 *143:A 0.00045221
4 *161:X 0.000387896
5 *40:25 0.000701955
6 *40:6 0.00129803
7 *143:A *41:10 0
8 *144:A2 *144:B1 9.11365e-06
9 *142:A *144:A2 5.83304e-05
10 *142:B *144:A2 0
11 *143:B *143:A 0.000578673
12 *143:B *144:A2 0.000646148
13 *143:B *40:25 0.000200413
14 *147:A *40:6 0.000101111
15 *147:A *40:25 0.00013737
16 *150:A *143:A 0
17 *150:A *40:6 1.59373e-05
18 *150:C *40:6 4.82947e-05
19 *153:A *143:A 6.95112e-05
20 *154:A2 *144:A2 0.000152333
21 *154:A2 *40:25 0.000197984
22 *165:A *144:A2 0.000678877
23 *168:A *143:A 0.000242918
24 *26:14 *144:A2 7.252e-05
*RES
1 *161:X *40:6 14.3536 
2 *40:6 *143:A 29.7643 
3 *40:6 *40:25 12.1071 
4 *40:25 *145:B 13.8 
5 *40:25 *144:A2 24.8536 
*END

*D_NET *41 0.00515277
*CONN
*I *144:B1 I *D sky130_fd_sc_hd__o31a_1
*I *145:C I *D sky130_fd_sc_hd__or4_1
*I *162:X O *D sky130_fd_sc_hd__buf_1
*CAP
1 *144:B1 0.000511549
2 *145:C 3.39029e-05
3 *162:X 0.000839526
4 *41:10 0.00138498
5 *41:10 *148:A 0.0009274
6 *143:A *41:10 0
7 *143:B *41:10 0.000100735
8 *144:A2 *144:B1 9.11365e-06
9 *145:D *145:C 2.59355e-05
10 *153:A *144:B1 0
11 *153:A *41:10 0
12 *165:A *144:B1 0
13 *26:14 *144:B1 0.000912172
14 *26:14 *41:10 0.00040746
15 *34:18 *41:10 0
*RES
1 *162:X *41:10 33.3179 
2 *41:10 *145:C 14.3357 
3 *41:10 *144:B1 26.6036 
*END

*D_NET *42 0.00416149
*CONN
*I *148:A I *D sky130_fd_sc_hd__xor2_1
*I *163:X O *D sky130_fd_sc_hd__buf_1
*CAP
1 *148:A 0.00129594
2 *163:X 0.00129594
3 *141:B *148:A 7.83366e-05
4 *142:B *148:A 7.80714e-06
5 *146:A_N *148:A 0.000174812
6 *146:B *148:A 0
7 *152:A *148:A 0
8 *154:A2 *148:A 0
9 *170:A *148:A 0
10 *19:35 *148:A 1.31516e-05
11 *34:18 *148:A 0.000368096
12 *41:10 *148:A 0.0009274
*RES
1 *163:X *148:A 49.3857 
*END

*D_NET *43 0.00238037
*CONN
*I *171:A I *D sky130_fd_sc_hd__buf_2
*I *155:X O *D sky130_fd_sc_hd__clkbuf_1
*CAP
1 *171:A 0.00109786
2 *155:X 0.00109786
3 *139:A *171:A 2.37761e-05
4 *165:A *171:A 0.000123902
5 *19:14 *171:A 3.69697e-05
*RES
1 *155:X *171:A 42.0643 
*END
