*SPEF "ieee 1481-1999"
*DESIGN "twos_complement"
*DATE "14:34:47 Saturday April 26, 2025"
*VENDOR "The OpenROAD Project"
*PROGRAM "OpenROAD"
*VERSION "b16bda7e82721d10566ff7e2b68f1ff0be9f9e38"
*DESIGN_FLOW "NAME_SCOPE LOCAL" "PIN_CAP NONE"
*DIVIDER /
*DELIMITER :
*BUS_DELIMITER []
*T_UNIT 1 NS
*C_UNIT 1 PF
*R_UNIT 1 OHM
*L_UNIT 1 HENRY

*NAME_MAP
*3 in[0]
*4 in[1]
*5 in[2]
*6 in[3]
*7 in[4]
*8 in[5]
*9 in[6]
*10 in[7]
*11 out[0]
*12 out[1]
*13 out[2]
*14 out[3]
*15 out[4]
*16 out[5]
*17 out[6]
*18 out[7]
*19 _00_
*20 _01_
*21 _02_
*22 _03_
*23 _04_
*24 _05_
*25 _06_
*26 _07_
*27 _08_
*28 net1
*29 net10
*30 net11
*31 net12
*32 net13
*33 net14
*34 net15
*35 net16
*36 net2
*37 net3
*38 net4
*39 net5
*40 net6
*41 net7
*42 net8
*43 net9
*44 FILLER_0_0_21
*45 FILLER_0_0_27
*46 FILLER_0_0_29
*47 FILLER_0_0_37
*48 FILLER_0_0_9
*49 FILLER_0_10_12
*50 FILLER_0_10_16
*51 FILLER_0_10_29
*52 FILLER_0_10_41
*53 FILLER_0_10_6
*54 FILLER_0_11_12
*55 FILLER_0_11_24
*56 FILLER_0_11_3
*57 FILLER_0_11_36
*58 FILLER_0_11_40
*59 FILLER_0_12_16
*60 FILLER_0_12_29
*61 FILLER_0_12_37
*62 FILLER_0_1_11
*63 FILLER_0_1_23
*64 FILLER_0_1_3
*65 FILLER_0_1_35
*66 FILLER_0_1_47
*67 FILLER_0_2_15
*68 FILLER_0_2_27
*69 FILLER_0_2_3
*70 FILLER_0_2_34
*71 FILLER_0_2_46
*72 FILLER_0_3_15
*73 FILLER_0_3_21
*74 FILLER_0_3_9
*75 FILLER_0_4_15
*76 FILLER_0_4_27
*77 FILLER_0_4_3
*78 FILLER_0_4_35
*79 FILLER_0_5_18
*80 FILLER_0_5_22
*81 FILLER_0_5_26
*82 FILLER_0_5_38
*83 FILLER_0_5_45
*84 FILLER_0_5_6
*85 FILLER_0_6_15
*86 FILLER_0_6_27
*87 FILLER_0_6_29
*88 FILLER_0_6_3
*89 FILLER_0_6_41
*90 FILLER_0_6_47
*91 FILLER_0_7_15
*92 FILLER_0_7_27
*93 FILLER_0_7_3
*94 FILLER_0_7_39
*95 FILLER_0_7_47
*96 FILLER_0_8_18
*97 FILLER_0_8_26
*98 FILLER_0_8_29
*99 FILLER_0_8_34
*100 FILLER_0_8_40
*101 FILLER_0_8_6
*102 FILLER_0_9_19
*103 FILLER_0_9_27
*104 FILLER_0_9_36
*105 FILLER_0_9_7
*106 PHY_EDGE_ROW_0_Left_13
*107 PHY_EDGE_ROW_0_Right_0
*108 PHY_EDGE_ROW_10_Left_23
*109 PHY_EDGE_ROW_10_Right_10
*110 PHY_EDGE_ROW_11_Left_24
*111 PHY_EDGE_ROW_11_Right_11
*112 PHY_EDGE_ROW_12_Left_25
*113 PHY_EDGE_ROW_12_Right_12
*114 PHY_EDGE_ROW_1_Left_14
*115 PHY_EDGE_ROW_1_Right_1
*116 PHY_EDGE_ROW_2_Left_15
*117 PHY_EDGE_ROW_2_Right_2
*118 PHY_EDGE_ROW_3_Left_16
*119 PHY_EDGE_ROW_3_Right_3
*120 PHY_EDGE_ROW_4_Left_17
*121 PHY_EDGE_ROW_4_Right_4
*122 PHY_EDGE_ROW_5_Left_18
*123 PHY_EDGE_ROW_5_Right_5
*124 PHY_EDGE_ROW_6_Left_19
*125 PHY_EDGE_ROW_6_Right_6
*126 PHY_EDGE_ROW_7_Left_20
*127 PHY_EDGE_ROW_7_Right_7
*128 PHY_EDGE_ROW_8_Left_21
*129 PHY_EDGE_ROW_8_Right_8
*130 PHY_EDGE_ROW_9_Left_22
*131 PHY_EDGE_ROW_9_Right_9
*132 TAP_TAPCELL_ROW_0_26
*133 TAP_TAPCELL_ROW_10_31
*134 TAP_TAPCELL_ROW_12_32
*135 TAP_TAPCELL_ROW_2_27
*136 TAP_TAPCELL_ROW_4_28
*137 TAP_TAPCELL_ROW_6_29
*138 TAP_TAPCELL_ROW_8_30
*139 _09_
*140 _10_
*141 _11_
*142 _12_
*143 _13_
*144 _14_
*145 _15_
*146 _16_
*147 _17_
*148 _18_
*149 _19_
*150 _20_
*151 _21_
*152 _22_
*153 _23_
*154 _24_
*155 _25_
*156 input1
*157 input2
*158 input3
*159 input4
*160 input5
*161 input6
*162 input7
*163 input8
*164 output10
*165 output11
*166 output12
*167 output13
*168 output14
*169 output15
*170 output16
*171 output9

*PORTS
in[0] I
in[1] I
in[2] I
in[3] I
in[4] I
in[5] I
in[6] I
in[7] I
out[0] O
out[1] O
out[2] O
out[3] O
out[4] O
out[5] O
out[6] O
out[7] O

*D_NET *3 0.000999474
*CONN
*P in[0] I
*I *156:A I *D sky130_fd_sc_hd__dlymetal6s2s_1
*CAP
1 in[0] 0.00049469
2 *156:A 0.00049469
3 *156:A *157:A 1.00941e-05
*RES
1 in[0] *156:A 9.94677 
*END

*D_NET *4 0.0010723
*CONN
*P in[1] I
*I *157:A I *D sky130_fd_sc_hd__buf_1
*CAP
1 in[1] 0.000531101
2 *157:A 0.000531101
3 *157:A *158:A 0
4 *157:A *28:12 0
5 *156:A *157:A 1.00941e-05
*RES
1 in[1] *157:A 9.84523 
*END

*D_NET *5 0.000538876
*CONN
*P in[2] I
*I *158:A I *D sky130_fd_sc_hd__buf_1
*CAP
1 in[2] 0.000269438
2 *158:A 0.000269438
3 *158:A *159:A 0
4 *157:A *158:A 0
*RES
1 in[2] *158:A 6.8343 
*END

*D_NET *6 0.000653585
*CONN
*P in[3] I
*I *159:A I *D sky130_fd_sc_hd__buf_1
*CAP
1 in[3] 0.000326792
2 *159:A 0.000326792
3 *159:A *150:B 0
4 *159:A *160:A 0
5 *158:A *159:A 0
*RES
1 in[3] *159:A 7.8543 
*END

*D_NET *7 0.000569311
*CONN
*P in[4] I
*I *160:A I *D sky130_fd_sc_hd__buf_1
*CAP
1 in[4] 0.000284655
2 *160:A 0.000284655
3 *160:A *150:B 0
4 *160:A *161:A 0
5 *159:A *160:A 0
*RES
1 in[4] *160:A 7.0893 
*END

*D_NET *8 0.000964165
*CONN
*P in[5] I
*I *161:A I *D sky130_fd_sc_hd__buf_1
*CAP
1 in[5] 0.000343708
2 *161:A 0.000343708
3 *161:A *147:A 0.000151848
4 *161:A *150:B 0.0001249
5 *161:A *162:A 0
6 *161:A *169:A 0
7 *160:A *161:A 0
*RES
1 in[5] *161:A 9.2493 
*END

*D_NET *9 0.000523624
*CONN
*P in[6] I
*I *162:A I *D sky130_fd_sc_hd__buf_1
*CAP
1 in[6] 0.000261812
2 *162:A 0.000261812
3 *162:A *163:A 0
4 *161:A *162:A 0
*RES
1 in[6] *162:A 6.8343 
*END

*D_NET *10 0.00115517
*CONN
*P in[7] I
*I *163:A I *D sky130_fd_sc_hd__buf_1
*CAP
1 in[7] 0.000577586
2 *163:A 0.000577586
3 *162:A *163:A 0
*RES
1 in[7] *163:A 10.6316 
*END

*D_NET *11 0.00109227
*CONN
*P out[0] O
*I *171:X O *D sky130_fd_sc_hd__buf_2
*CAP
1 out[0] 0.000546133
2 *171:X 0.000546133
3 out[0] out[1] 0
*RES
1 *171:X out[0] 9.66983 
*END

*D_NET *12 0.000411239
*CONN
*P out[1] O
*I *164:X O *D sky130_fd_sc_hd__buf_2
*CAP
1 out[1] 0.00020562
2 *164:X 0.00020562
3 out[1] out[2] 0
4 out[0] out[1] 0
*RES
1 *164:X out[1] 4.84677 
*END

*D_NET *13 0.000413735
*CONN
*P out[2] O
*I *165:X O *D sky130_fd_sc_hd__buf_2
*CAP
1 out[2] 0.000202533
2 *165:X 0.000202533
3 out[2] out[3] 0
4 out[2] *139:A 8.66976e-06
5 out[1] out[2] 0
*RES
1 *165:X out[2] 4.84677 
*END

*D_NET *14 0.000556923
*CONN
*P out[3] O
*I *166:X O *D sky130_fd_sc_hd__buf_2
*CAP
1 out[3] 0.000248117
2 *166:X 0.000248117
3 out[3] out[4] 0
4 out[3] *166:A 6.06899e-05
5 out[2] out[3] 0
*RES
1 *166:X out[3] 5.86677 
*END

*D_NET *15 0.000483371
*CONN
*P out[4] O
*I *167:X O *D sky130_fd_sc_hd__buf_2
*CAP
1 out[4] 0.000241686
2 *167:X 0.000241686
3 out[4] out[5] 0
4 out[4] *167:A 0
5 out[3] out[4] 0
*RES
1 *167:X out[4] 5.35677 
*END

*D_NET *16 0.0005579
*CONN
*P out[5] O
*I *168:X O *D sky130_fd_sc_hd__buf_2
*CAP
1 out[5] 0.000248605
2 *168:X 0.000248605
3 out[5] out[6] 0
4 out[5] *168:A 6.06899e-05
5 out[4] out[5] 0
*RES
1 *168:X out[5] 5.86677 
*END

*D_NET *17 0.000728806
*CONN
*P out[6] O
*I *169:X O *D sky130_fd_sc_hd__buf_2
*CAP
1 out[6] 0.000364403
2 *169:X 0.000364403
3 out[6] out[7] 0
4 out[5] out[6] 0
*RES
1 *169:X out[6] 5.19637 
*END

*D_NET *18 0.000971234
*CONN
*P out[7] O
*I *170:X O *D sky130_fd_sc_hd__clkbuf_4
*CAP
1 out[7] 0.000485617
2 *170:X 0.000485617
3 out[6] out[7] 0
*RES
1 *170:X out[7] 10.1435 
*END

*D_NET *19 0.0052972
*CONN
*I *140:B I *D sky130_fd_sc_hd__nor2_1
*I *154:B1_N I *D sky130_fd_sc_hd__a21boi_1
*I *145:D I *D sky130_fd_sc_hd__or4_1
*I *141:B I *D sky130_fd_sc_hd__and2_1
*I *144:A3 I *D sky130_fd_sc_hd__o31a_1
*I *139:X O *D sky130_fd_sc_hd__or4_2
*CAP
1 *140:B 0
2 *154:B1_N 5.77137e-05
3 *145:D 0.000312237
4 *141:B 5.16288e-05
5 *144:A3 9.9967e-05
6 *139:X 0.000379002
7 *19:35 0.000427845
8 *19:31 0.00031527
9 *19:25 0.000285582
10 *19:14 0.000570974
11 *141:B *148:A 7.63204e-05
12 *141:B *170:A 7.63204e-05
13 *144:A3 *144:A1 0.000161529
14 *144:A3 *146:A_N 5.05437e-05
15 *145:D *145:A 8.23457e-05
16 *145:D *145:C 2.49909e-05
17 *145:D *148:B 6.1357e-05
18 *145:D *23:8 1.91597e-05
19 *154:B1_N *154:A1 4.66826e-05
20 *154:B1_N *166:A 1.61831e-05
21 *19:14 *139:A 0.000335885
22 *19:14 *139:C 5.83121e-06
23 *19:14 *144:A1 9.51035e-05
24 *19:14 *146:A_N 1.91597e-05
25 *19:14 *165:A 0
26 *19:14 *171:A 3.67779e-05
27 *19:25 *144:A1 2.42236e-05
28 *19:25 *146:A_N 0.000139238
29 *19:25 *165:A 0
30 *19:31 *142:B 0.000540519
31 *19:31 *146:A_N 0.000540526
32 *19:31 *154:A1 2.75145e-05
33 *19:31 *154:A2 8.23457e-05
34 *19:31 *39:38 4.66742e-05
35 *19:35 *146:A_N 4.70912e-05
36 *19:35 *148:A 1.26626e-05
37 *19:35 *167:A 0.000187759
38 *19:35 *170:A 1.15688e-05
39 *19:35 *39:38 2.86623e-05
*RES
1 *139:X *19:14 12.59 
2 *19:14 *144:A3 3.775 
3 *19:14 *19:25 4.145 
4 *19:25 *19:31 9.71 
5 *19:31 *19:35 4.4 
6 *19:35 *141:B 5.235 
7 *19:35 *145:D 7.845 
8 *19:31 *154:B1_N 2.74 
9 *19:25 *140:B 3.6 
*END

*D_NET *20 0.00496239
*CONN
*I *142:A I *D sky130_fd_sc_hd__nor2_1
*I *143:B I *D sky130_fd_sc_hd__xnor2_1
*I *140:Y O *D sky130_fd_sc_hd__nor2_1
*CAP
1 *142:A 9.04153e-06
2 *143:B 0.000747053
3 *140:Y 0.000201067
4 *20:8 0.000957161
5 *142:A *144:A2 5.4003e-05
6 *142:A *152:B 4.61595e-05
7 *143:B *143:A 0.0005017
8 *143:B *144:A2 0.000597894
9 *143:B *152:A 5.30479e-05
10 *143:B *152:B 0.00102235
11 *143:B *154:A2 5.74367e-05
12 *143:B *168:A 0.0001711
13 *143:B *169:A 0
14 *143:B *25:12 1.88904e-05
15 *143:B *40:25 0.000185405
16 *143:B *41:10 9.766e-05
17 *20:8 *167:A 0.000230429
18 *20:8 *38:10 1.19928e-05
*RES
1 *140:Y *20:8 6.12 
2 *20:8 *143:B 25.86 
3 *20:8 *142:A 4.215 
*END

*D_NET *21 0.00226206
*CONN
*I *142:B I *D sky130_fd_sc_hd__nor2_1
*I *141:X O *D sky130_fd_sc_hd__and2_1
*CAP
1 *142:B 0.000366405
2 *141:X 0.000366405
3 *142:B *141:A 7.10578e-05
4 *142:B *144:A2 0
5 *142:B *146:A_N 0.000180329
6 *142:B *146:B 0.00020613
7 *142:B *148:A 8.09021e-06
8 *142:B *154:A2 2.75538e-05
9 *142:B *165:A 0.000189897
10 *142:B *167:A 0.000123225
11 *142:B *38:10 0.000123225
12 *142:B *39:10 5.92191e-05
13 *19:31 *142:B 0.000540519
*RES
1 *141:X *142:B 19.785 
*END

*D_NET *22 0.00258494
*CONN
*I *146:A_N I *D sky130_fd_sc_hd__and2b_1
*I *144:X O *D sky130_fd_sc_hd__o31a_1
*CAP
1 *146:A_N 0.000366173
2 *144:X 0.000366173
3 *146:A_N *144:A1 0.000129735
4 *146:A_N *148:A 0.000161637
5 *146:A_N *39:38 0.000584332
6 *142:B *146:A_N 0.000180329
7 *144:A3 *146:A_N 5.05437e-05
8 *19:14 *146:A_N 1.91597e-05
9 *19:25 *146:A_N 0.000139238
10 *19:31 *146:A_N 0.000540526
11 *19:35 *146:A_N 4.70912e-05
*RES
1 *144:X *146:A_N 19.92 
*END

*D_NET *23 0.000866189
*CONN
*I *148:B I *D sky130_fd_sc_hd__xor2_1
*I *146:B I *D sky130_fd_sc_hd__and2b_1
*I *145:X O *D sky130_fd_sc_hd__or4_1
*CAP
1 *148:B 6.3961e-05
2 *146:B 6.86188e-05
3 *145:X 4.91193e-05
4 *23:8 0.000181699
5 *146:B *141:A 0.000137578
6 *146:B *148:A 0
7 *146:B *154:A2 3.84409e-05
8 *146:B *39:10 2.92496e-05
9 *23:8 *145:A 1.08758e-05
10 *142:B *146:B 0.00020613
11 *145:D *148:B 6.1357e-05
12 *145:D *23:8 1.91597e-05
*RES
1 *145:X *23:8 2.41 
2 *23:8 *146:B 8.255 
3 *23:8 *148:B 2.74 
*END

*D_NET *24 0.00216026
*CONN
*I *147:A I *D sky130_fd_sc_hd__clkbuf_1
*I *146:X O *D sky130_fd_sc_hd__and2b_1
*CAP
1 *147:A 0.000414014
2 *146:X 0.000414014
3 *147:A *150:A 8.69583e-05
4 *147:A *150:B 0.000368883
5 *147:A *150:C 2.30292e-05
6 *147:A *25:12 0.000457691
7 *147:A *40:6 0.000103823
8 *147:A *40:25 0.000140001
9 *161:A *147:A 0.000151848
*RES
1 *146:X *147:A 15.095 
*END

*D_NET *25 0.00275206
*CONN
*I *154:A2 I *D sky130_fd_sc_hd__a21boi_1
*I *152:A I *D sky130_fd_sc_hd__and2_1
*I *150:X O *D sky130_fd_sc_hd__or3_1
*CAP
1 *154:A2 0.000255045
2 *152:A 6.08524e-05
3 *150:X 0.000363576
4 *25:12 0.000679474
5 *152:A *148:A 0
6 *152:A *169:A 0
7 *154:A2 *141:A 0.000139238
8 *154:A2 *144:A2 0.000140905
9 *154:A2 *148:A 0
10 *154:A2 *165:A 5.83121e-06
11 *154:A2 *39:6 1.56428e-05
12 *154:A2 *39:10 0.000131401
13 *154:A2 *39:38 4.16445e-05
14 *154:A2 *40:25 0.000183043
15 *142:B *154:A2 2.75538e-05
16 *143:B *152:A 5.30479e-05
17 *143:B *154:A2 5.74367e-05
18 *143:B *25:12 1.88904e-05
19 *146:B *154:A2 3.84409e-05
20 *147:A *25:12 0.000457691
21 *19:31 *154:A2 8.23457e-05
*RES
1 *150:X *25:12 8.5275 
2 *25:12 *152:A 4.8525 
3 *25:12 *154:A2 10.8525 
*END

*D_NET *26 0.00475464
*CONN
*I *152:B I *D sky130_fd_sc_hd__and2_1
*I *151:Y O *D sky130_fd_sc_hd__o21ai_1
*CAP
1 *152:B 0.00107261
2 *151:Y 0.00107261
3 *152:B *144:A2 7.07801e-05
4 *152:B *144:B1 0.000845108
5 *152:B *150:A 0.000193396
6 *152:B *169:A 2.49909e-05
7 *152:B *37:12 3.00381e-05
8 *152:B *41:10 0.0003766
9 *142:A *152:B 4.61595e-05
10 *143:B *152:B 0.00102235
*RES
1 *151:Y *152:B 30.255 
*END

*D_NET *27 0.00127969
*CONN
*I *153:A I *D sky130_fd_sc_hd__clkbuf_1
*I *152:X O *D sky130_fd_sc_hd__and2_1
*CAP
1 *153:A 0.00048413
2 *152:X 0.00048413
3 *153:A *143:A 7.16263e-05
4 *153:A *144:B1 0
5 *153:A *150:A 0
6 *153:A *169:A 0.000239807
7 *153:A *41:10 0
*RES
1 *152:X *153:A 15.09 
*END

*D_NET *28 0.00623859
*CONN
*I *139:D I *D sky130_fd_sc_hd__or4_2
*I *155:A I *D sky130_fd_sc_hd__clkbuf_1
*I *151:A2 I *D sky130_fd_sc_hd__o21ai_1
*I *150:C I *D sky130_fd_sc_hd__or3_1
*I *149:B I *D sky130_fd_sc_hd__xor2_1
*I *156:X O *D sky130_fd_sc_hd__dlymetal6s2s_1
*CAP
1 *139:D 0.000399572
2 *155:A 0
3 *151:A2 0.000152947
4 *150:C 0.000577059
5 *149:B 0
6 *156:X 0.000154793
7 *28:29 0.000844531
8 *28:27 0.000261532
9 *28:23 0.000604478
10 *28:12 0.000212693
11 *139:D *139:B 1.12578e-05
12 *139:D *139:C 0.00100017
13 *139:D *164:A 3.57349e-05
14 *139:D *36:25 8.23457e-05
15 *150:C *150:A 0.00103719
16 *150:C *150:B 0
17 *150:C *40:6 4.60123e-05
18 *151:A2 *150:A 0.000274155
19 *151:A2 *37:12 4.82919e-05
20 *28:12 *139:B 5.2397e-05
21 *28:12 *164:A 0
22 *28:12 *36:25 2.23589e-05
23 *28:12 *36:31 6.05595e-05
24 *28:23 *139:B 5.29093e-05
25 *28:23 *164:A 8.52845e-05
26 *28:23 *36:25 0.000170805
27 *28:27 *139:B 0
28 *28:27 *164:A 2.84864e-05
29 *28:27 *36:31 0
30 *28:27 *37:12 0
31 *28:29 *37:12 0
32 *147:A *150:C 2.30292e-05
33 *157:A *28:12 0
*RES
1 *156:X *28:12 8.54 
2 *28:12 *149:B 1.6 
3 *28:12 *28:23 2.295 
4 *28:23 *28:27 4.4 
5 *28:27 *28:29 1.89 
6 *28:29 *150:C 17.295 
7 *28:29 *151:A2 6.81 
8 *28:27 *155:A 3.6 
9 *28:23 *139:D 11.365 
*END

*D_NET *29 0.00217593
*CONN
*I *164:A I *D sky130_fd_sc_hd__buf_2
*I *149:X O *D sky130_fd_sc_hd__xor2_1
*CAP
1 *164:A 0.000909928
2 *149:X 0.000909928
3 *164:A *139:B 6.9681e-05
4 *164:A *139:C 4.9968e-05
5 *164:A *36:8 8.69157e-05
6 *139:D *164:A 3.57349e-05
7 *28:12 *164:A 0
8 *28:23 *164:A 8.52845e-05
9 *28:27 *164:A 2.84864e-05
*RES
1 *149:X *164:A 21.045 
*END

*D_NET *30 0.00268806
*CONN
*I *165:A I *D sky130_fd_sc_hd__buf_2
*I *153:X O *D sky130_fd_sc_hd__clkbuf_1
*CAP
1 *165:A 0.000858252
2 *153:X 0.000858252
3 *165:A *144:A2 0.00062813
4 *165:A *144:B1 0
5 *165:A *171:A 0.000115484
6 *165:A *39:6 3.22099e-05
7 *142:B *165:A 0.000189897
8 *154:A2 *165:A 5.83121e-06
9 *19:14 *165:A 0
10 *19:25 *165:A 0
*RES
1 *153:X *165:A 23.505 
*END

*D_NET *31 0.00120765
*CONN
*I *166:A I *D sky130_fd_sc_hd__buf_2
*I *154:Y O *D sky130_fd_sc_hd__a21boi_1
*CAP
1 *166:A 0.000284194
2 *154:Y 0.000284194
3 *166:A *154:A1 0.000562385
4 out[3] *166:A 6.06899e-05
5 *154:B1_N *166:A 1.61831e-05
*RES
1 *154:Y *166:A 13.8 
*END

*D_NET *32 0.00228306
*CONN
*I *167:A I *D sky130_fd_sc_hd__buf_2
*I *142:Y O *D sky130_fd_sc_hd__nor2_1
*CAP
1 *167:A 0.000442146
2 *142:Y 0.000442146
3 *167:A *154:A1 0.000474336
4 *167:A *170:A 3.09233e-05
5 *167:A *38:10 0.000141865
6 *167:A *39:38 0.00021023
7 out[4] *167:A 0
8 *142:B *167:A 0.000123225
9 *19:35 *167:A 0.000187759
10 *20:8 *167:A 0.000230429
*RES
1 *142:Y *167:A 19.56 
*END

*D_NET *33 0.00298201
*CONN
*I *168:A I *D sky130_fd_sc_hd__buf_2
*I *143:Y O *D sky130_fd_sc_hd__xnor2_1
*CAP
1 *168:A 0.00110089
2 *143:Y 0.00110089
3 *168:A *143:A 0.000226917
4 *168:A *170:A 0.000321522
5 out[5] *168:A 6.06899e-05
6 *143:B *168:A 0.0001711
*RES
1 *143:Y *168:A 22.71 
*END

*D_NET *34 0.00272693
*CONN
*I *169:A I *D sky130_fd_sc_hd__buf_2
*I *147:X O *D sky130_fd_sc_hd__clkbuf_1
*CAP
1 *169:A 0.00106078
2 *147:X 0.00106078
3 *169:A *148:A 0.000340573
4 *169:A *170:A 0
5 *169:A *41:10 0
6 *143:B *169:A 0
7 *152:A *169:A 0
8 *152:B *169:A 2.49909e-05
9 *153:A *169:A 0.000239807
10 *161:A *169:A 0
*RES
1 *147:X *169:A 28.51 
*END

*D_NET *35 0.00128709
*CONN
*I *170:A I *D sky130_fd_sc_hd__clkbuf_4
*I *148:X O *D sky130_fd_sc_hd__xor2_1
*CAP
1 *170:A 0.00042338
2 *148:X 0.00042338
3 *170:A *148:A 0
4 *141:B *170:A 7.63204e-05
5 *167:A *170:A 3.09233e-05
6 *168:A *170:A 0.000321522
7 *169:A *170:A 0
8 *19:35 *170:A 1.15688e-05
*RES
1 *148:X *170:A 15.72 
*END

*D_NET *36 0.00650042
*CONN
*I *149:A I *D sky130_fd_sc_hd__xor2_1
*I *151:A1 I *D sky130_fd_sc_hd__o21ai_1
*I *150:B I *D sky130_fd_sc_hd__or3_1
*I *139:C I *D sky130_fd_sc_hd__or4_2
*I *157:X O *D sky130_fd_sc_hd__buf_1
*CAP
1 *149:A 0
2 *151:A1 0
3 *150:B 0.00114617
4 *139:C 0.000208871
5 *157:X 4.90308e-05
6 *36:31 0.00142893
7 *36:25 0.000461185
8 *36:8 0.000436327
9 *139:C *139:B 0.000597798
10 *150:B *37:12 1.89685e-05
11 *36:31 *139:B 4.84627e-05
12 *36:31 *37:12 0.00013194
13 *139:D *139:C 0.00100017
14 *139:D *36:25 8.23457e-05
15 *147:A *150:B 0.000368883
16 *150:C *150:B 0
17 *159:A *150:B 0
18 *160:A *150:B 0
19 *161:A *150:B 0.0001249
20 *164:A *139:C 4.9968e-05
21 *164:A *36:8 8.69157e-05
22 *19:14 *139:C 5.83121e-06
23 *28:12 *36:25 2.23589e-05
24 *28:12 *36:31 6.05595e-05
25 *28:23 *36:25 0.000170805
26 *28:27 *36:31 0
*RES
1 *157:X *36:8 4.725 
2 *36:8 *139:C 13.635 
3 *36:8 *36:25 5.225 
4 *36:25 *36:31 7.67 
5 *36:31 *150:B 21.51 
6 *36:31 *151:A1 3.6 
7 *36:25 *149:A 1.6 
*END

*D_NET *37 0.00610006
*CONN
*I *139:B I *D sky130_fd_sc_hd__or4_2
*I *150:A I *D sky130_fd_sc_hd__or3_1
*I *151:B1 I *D sky130_fd_sc_hd__o21ai_1
*I *158:X O *D sky130_fd_sc_hd__buf_1
*CAP
1 *139:B 0.00095989
2 *150:A 0.000622198
3 *151:B1 0
4 *158:X 0
5 *37:12 0.000755803
6 *37:6 0.0010935
7 *150:A *143:A 0
8 *150:A *40:6 1.52352e-05
9 *139:C *139:B 0.000597798
10 *139:D *139:B 1.12578e-05
11 *147:A *150:A 8.69583e-05
12 *150:B *37:12 1.89685e-05
13 *150:C *150:A 0.00103719
14 *151:A2 *150:A 0.000274155
15 *151:A2 *37:12 4.82919e-05
16 *152:B *150:A 0.000193396
17 *152:B *37:12 3.00381e-05
18 *153:A *150:A 0
19 *164:A *139:B 6.9681e-05
20 *28:12 *139:B 5.2397e-05
21 *28:23 *139:B 5.29093e-05
22 *28:27 *139:B 0
23 *28:27 *37:12 0
24 *28:29 *37:12 0
25 *36:31 *139:B 4.84627e-05
26 *36:31 *37:12 0.00013194
*RES
1 *158:X *37:6 3.6 
2 *37:6 *37:12 5.36 
3 *37:12 *151:B1 1.6 
4 *37:12 *150:A 21.95 
5 *37:6 *139:B 16.995 
*END

*D_NET *38 0.00462844
*CONN
*I *139:A I *D sky130_fd_sc_hd__or4_2
*I *154:A1 I *D sky130_fd_sc_hd__a21boi_1
*I *159:X O *D sky130_fd_sc_hd__buf_1
*CAP
1 *139:A 0.000320639
2 *154:A1 0.000189298
3 *159:X 0.000925702
4 *38:10 0.00143564
5 *139:A *144:A1 0
6 *139:A *171:A 2.46007e-05
7 *154:A1 *144:A1 0
8 *154:A1 *39:38 0
9 out[2] *139:A 8.66976e-06
10 *142:B *38:10 0.000123225
11 *154:B1_N *154:A1 4.66826e-05
12 *166:A *154:A1 0.000562385
13 *167:A *154:A1 0.000474336
14 *167:A *38:10 0.000141865
15 *19:14 *139:A 0.000335885
16 *19:31 *154:A1 2.75145e-05
17 *20:8 *38:10 1.19928e-05
*RES
1 *159:X *38:10 17.685 
2 *38:10 *154:A1 10.71 
3 *38:10 *139:A 10.275 
*END

*D_NET *39 0.00572356
*CONN
*I *144:A1 I *D sky130_fd_sc_hd__o31a_1
*I *140:A I *D sky130_fd_sc_hd__nor2_1
*I *145:A I *D sky130_fd_sc_hd__or4_1
*I *141:A I *D sky130_fd_sc_hd__and2_1
*I *160:X O *D sky130_fd_sc_hd__buf_1
*CAP
1 *144:A1 0.000209028
2 *140:A 0
3 *145:A 4.18152e-05
4 *141:A 0.00026365
5 *160:X 0.000953557
6 *39:38 0.000529358
7 *39:10 0.000363388
8 *39:6 0.00133181
9 *139:A *144:A1 0
10 *142:B *141:A 7.10578e-05
11 *142:B *39:10 5.92191e-05
12 *144:A3 *144:A1 0.000161529
13 *145:D *145:A 8.23457e-05
14 *146:A_N *144:A1 0.000129735
15 *146:A_N *39:38 0.000584332
16 *146:B *141:A 0.000137578
17 *146:B *39:10 2.92496e-05
18 *154:A1 *144:A1 0
19 *154:A1 *39:38 0
20 *154:A2 *141:A 0.000139238
21 *154:A2 *39:6 1.56428e-05
22 *154:A2 *39:10 0.000131401
23 *154:A2 *39:38 4.16445e-05
24 *165:A *39:6 3.22099e-05
25 *167:A *39:38 0.00021023
26 *19:14 *144:A1 9.51035e-05
27 *19:25 *144:A1 2.42236e-05
28 *19:31 *39:38 4.66742e-05
29 *19:35 *39:38 2.86623e-05
30 *23:8 *145:A 1.08758e-05
*RES
1 *160:X *39:6 11.71 
2 *39:6 *39:10 3.635 
3 *39:10 *141:A 8.46 
4 *39:10 *145:A 4.395 
5 *39:6 *39:38 10.565 
6 *39:38 *140:A 3.6 
7 *39:38 *144:A1 8.175 
*END

*D_NET *40 0.00566726
*CONN
*I *144:A2 I *D sky130_fd_sc_hd__o31a_1
*I *145:B I *D sky130_fd_sc_hd__or4_1
*I *143:A I *D sky130_fd_sc_hd__xnor2_1
*I *161:X O *D sky130_fd_sc_hd__buf_1
*CAP
1 *144:A2 0.000207352
2 *145:B 0
3 *143:A 0.000407076
4 *161:X 0.000337172
5 *40:25 0.000601992
6 *40:6 0.00113889
7 *143:A *41:10 0
8 *144:A2 *144:B1 9.3062e-06
9 *142:A *144:A2 5.4003e-05
10 *142:B *144:A2 0
11 *143:B *143:A 0.0005017
12 *143:B *144:A2 0.000597894
13 *143:B *40:25 0.000185405
14 *147:A *40:6 0.000103823
15 *147:A *40:25 0.000140001
16 *150:A *143:A 0
17 *150:A *40:6 1.52352e-05
18 *150:C *40:6 4.60123e-05
19 *152:B *144:A2 7.07801e-05
20 *153:A *143:A 7.16263e-05
21 *154:A2 *144:A2 0.000140905
22 *154:A2 *40:25 0.000183043
23 *165:A *144:A2 0.00062813
24 *168:A *143:A 0.000226917
*RES
1 *161:X *40:6 5.845 
2 *40:6 *143:A 15.23 
3 *40:6 *40:25 8.39 
4 *40:25 *145:B 3.6 
5 *40:25 *144:A2 12.885 
*END

*D_NET *41 0.00464821
*CONN
*I *144:B1 I *D sky130_fd_sc_hd__o31a_1
*I *145:C I *D sky130_fd_sc_hd__or4_1
*I *162:X O *D sky130_fd_sc_hd__buf_1
*CAP
1 *144:B1 0.000458188
2 *145:C 2.89741e-05
3 *162:X 0.000756747
4 *41:10 0.00124391
5 *41:10 *148:A 0.000806733
6 *143:A *41:10 0
7 *143:B *41:10 9.766e-05
8 *144:A2 *144:B1 9.3062e-06
9 *145:D *145:C 2.49909e-05
10 *152:B *144:B1 0.000845108
11 *152:B *41:10 0.0003766
12 *153:A *144:B1 0
13 *153:A *41:10 0
14 *165:A *144:B1 0
15 *169:A *41:10 0
*RES
1 *162:X *41:10 19.995 
2 *41:10 *145:C 4.05 
3 *41:10 *144:B1 14.355 
*END

*D_NET *42 0.00370004
*CONN
*I *148:A I *D sky130_fd_sc_hd__xor2_1
*I *163:X O *D sky130_fd_sc_hd__buf_1
*CAP
1 *148:A 0.00114701
2 *163:X 0.00114701
3 *141:B *148:A 7.63204e-05
4 *142:B *148:A 8.09021e-06
5 *146:A_N *148:A 0.000161637
6 *146:B *148:A 0
7 *152:A *148:A 0
8 *154:A2 *148:A 0
9 *169:A *148:A 0.000340573
10 *170:A *148:A 0
11 *19:35 *148:A 1.26626e-05
12 *41:10 *148:A 0.000806733
*RES
1 *163:X *148:A 25.5 
*END

*D_NET *43 0.00212121
*CONN
*I *171:A I *D sky130_fd_sc_hd__buf_2
*I *155:X O *D sky130_fd_sc_hd__clkbuf_1
*CAP
1 *171:A 0.000972175
2 *155:X 0.000972175
3 *139:A *171:A 2.46007e-05
4 *165:A *171:A 0.000115484
5 *19:14 *171:A 3.67779e-05
*RES
1 *155:X *171:A 19.35 
*END
