*SPEF "ieee 1481-1999"
*DESIGN "twos_complement"
*DATE "14:34:49 Saturday April 26, 2025"
*VENDOR "The OpenROAD Project"
*PROGRAM "OpenROAD"
*VERSION "b16bda7e82721d10566ff7e2b68f1ff0be9f9e38"
*DESIGN_FLOW "NAME_SCOPE LOCAL" "PIN_CAP NONE"
*DIVIDER /
*DELIMITER :
*BUS_DELIMITER []
*T_UNIT 1 NS
*C_UNIT 1 PF
*R_UNIT 1 OHM
*L_UNIT 1 HENRY

*NAME_MAP
*3 in[0]
*4 in[1]
*5 in[2]
*6 in[3]
*7 in[4]
*8 in[5]
*9 in[6]
*10 in[7]
*11 out[0]
*12 out[1]
*13 out[2]
*14 out[3]
*15 out[4]
*16 out[5]
*17 out[6]
*18 out[7]
*19 _00_
*20 _01_
*21 _02_
*22 _03_
*23 _04_
*24 _05_
*25 _06_
*26 _07_
*27 _08_
*28 net1
*29 net10
*30 net11
*31 net12
*32 net13
*33 net14
*34 net15
*35 net16
*36 net2
*37 net3
*38 net4
*39 net5
*40 net6
*41 net7
*42 net8
*43 net9
*44 FILLER_0_0_21
*45 FILLER_0_0_27
*46 FILLER_0_0_29
*47 FILLER_0_0_37
*48 FILLER_0_0_9
*49 FILLER_0_10_12
*50 FILLER_0_10_16
*51 FILLER_0_10_29
*52 FILLER_0_10_41
*53 FILLER_0_10_6
*54 FILLER_0_11_12
*55 FILLER_0_11_24
*56 FILLER_0_11_3
*57 FILLER_0_11_36
*58 FILLER_0_11_40
*59 FILLER_0_12_16
*60 FILLER_0_12_29
*61 FILLER_0_12_37
*62 FILLER_0_1_11
*63 FILLER_0_1_23
*64 FILLER_0_1_3
*65 FILLER_0_1_35
*66 FILLER_0_1_47
*67 FILLER_0_2_15
*68 FILLER_0_2_27
*69 FILLER_0_2_3
*70 FILLER_0_2_34
*71 FILLER_0_2_46
*72 FILLER_0_3_15
*73 FILLER_0_3_21
*74 FILLER_0_3_9
*75 FILLER_0_4_15
*76 FILLER_0_4_27
*77 FILLER_0_4_3
*78 FILLER_0_4_35
*79 FILLER_0_5_18
*80 FILLER_0_5_22
*81 FILLER_0_5_26
*82 FILLER_0_5_38
*83 FILLER_0_5_45
*84 FILLER_0_5_6
*85 FILLER_0_6_15
*86 FILLER_0_6_27
*87 FILLER_0_6_29
*88 FILLER_0_6_3
*89 FILLER_0_6_41
*90 FILLER_0_6_47
*91 FILLER_0_7_15
*92 FILLER_0_7_27
*93 FILLER_0_7_3
*94 FILLER_0_7_39
*95 FILLER_0_7_47
*96 FILLER_0_8_18
*97 FILLER_0_8_26
*98 FILLER_0_8_29
*99 FILLER_0_8_34
*100 FILLER_0_8_40
*101 FILLER_0_8_6
*102 FILLER_0_9_19
*103 FILLER_0_9_27
*104 FILLER_0_9_36
*105 FILLER_0_9_7
*106 PHY_EDGE_ROW_0_Left_13
*107 PHY_EDGE_ROW_0_Right_0
*108 PHY_EDGE_ROW_10_Left_23
*109 PHY_EDGE_ROW_10_Right_10
*110 PHY_EDGE_ROW_11_Left_24
*111 PHY_EDGE_ROW_11_Right_11
*112 PHY_EDGE_ROW_12_Left_25
*113 PHY_EDGE_ROW_12_Right_12
*114 PHY_EDGE_ROW_1_Left_14
*115 PHY_EDGE_ROW_1_Right_1
*116 PHY_EDGE_ROW_2_Left_15
*117 PHY_EDGE_ROW_2_Right_2
*118 PHY_EDGE_ROW_3_Left_16
*119 PHY_EDGE_ROW_3_Right_3
*120 PHY_EDGE_ROW_4_Left_17
*121 PHY_EDGE_ROW_4_Right_4
*122 PHY_EDGE_ROW_5_Left_18
*123 PHY_EDGE_ROW_5_Right_5
*124 PHY_EDGE_ROW_6_Left_19
*125 PHY_EDGE_ROW_6_Right_6
*126 PHY_EDGE_ROW_7_Left_20
*127 PHY_EDGE_ROW_7_Right_7
*128 PHY_EDGE_ROW_8_Left_21
*129 PHY_EDGE_ROW_8_Right_8
*130 PHY_EDGE_ROW_9_Left_22
*131 PHY_EDGE_ROW_9_Right_9
*132 TAP_TAPCELL_ROW_0_26
*133 TAP_TAPCELL_ROW_10_31
*134 TAP_TAPCELL_ROW_12_32
*135 TAP_TAPCELL_ROW_2_27
*136 TAP_TAPCELL_ROW_4_28
*137 TAP_TAPCELL_ROW_6_29
*138 TAP_TAPCELL_ROW_8_30
*139 _09_
*140 _10_
*141 _11_
*142 _12_
*143 _13_
*144 _14_
*145 _15_
*146 _16_
*147 _17_
*148 _18_
*149 _19_
*150 _20_
*151 _21_
*152 _22_
*153 _23_
*154 _24_
*155 _25_
*156 input1
*157 input2
*158 input3
*159 input4
*160 input5
*161 input6
*162 input7
*163 input8
*164 output10
*165 output11
*166 output12
*167 output13
*168 output14
*169 output15
*170 output16
*171 output9

*PORTS
in[0] I
in[1] I
in[2] I
in[3] I
in[4] I
in[5] I
in[6] I
in[7] I
out[0] O
out[1] O
out[2] O
out[3] O
out[4] O
out[5] O
out[6] O
out[7] O

*D_NET *3 0.00113851
*CONN
*P in[0] I
*I *156:A I *D sky130_fd_sc_hd__dlymetal6s2s_1
*CAP
1 in[0] 0.000563972
2 *156:A 0
3 *3:11 0.000563972
4 *3:11 *4:15 1.05658e-05
*RES
1 in[0] *3:11 31.1218 
2 *3:11 *156:A 23 
*END

*D_NET *4 0.00123421
*CONN
*P in[1] I
*I *157:A I *D sky130_fd_sc_hd__buf_1
*CAP
1 in[1] 0.000611824
2 *157:A 0
3 *4:15 0.000611824
4 *4:15 *158:A 0
5 *4:15 *28:8 0
6 *3:11 *4:15 1.05658e-05
*RES
1 in[1] *4:15 30.9708 
2 *4:15 *157:A 23 
*END

*D_NET *5 0.000633121
*CONN
*P in[2] I
*I *158:A I *D sky130_fd_sc_hd__buf_1
*CAP
1 in[2] 0.00031656
2 *158:A 0.00031656
3 *158:A *6:17 0
4 *4:15 *158:A 0
*RES
1 in[2] *158:A 49.8062 
*END

*D_NET *6 0.000760724
*CONN
*P in[3] I
*I *159:A I *D sky130_fd_sc_hd__buf_1
*CAP
1 in[3] 0.000380362
2 *159:A 0
3 *6:17 0.000380362
4 *6:17 *7:17 0
5 *6:17 *36:41 0
6 *158:A *6:17 0
*RES
1 in[3] *6:17 28.2148 
2 *6:17 *159:A 23 
*END

*D_NET *7 0.000668173
*CONN
*P in[4] I
*I *160:A I *D sky130_fd_sc_hd__buf_1
*CAP
1 in[4] 0.000334086
2 *160:A 0
3 *7:17 0.000334086
4 *7:17 *8:19 0
5 *7:17 *36:41 0
6 *6:17 *7:17 0
*RES
1 in[4] *7:17 27.1584 
2 *7:17 *160:A 23 
*END

*D_NET *8 0.00111394
*CONN
*P in[5] I
*I *161:A I *D sky130_fd_sc_hd__buf_1
*CAP
1 in[5] 0.000399095
2 *161:A 0
3 *8:19 0.000399095
4 *8:19 *162:A 0
5 *8:19 *24:14 0.000173793
6 *8:19 *34:8 0
7 *8:19 *36:41 0.00014196
8 *7:17 *8:19 0
*RES
1 in[5] *8:19 30.1412 
2 *8:19 *161:A 23 
*END

*D_NET *9 0.000603153
*CONN
*P in[6] I
*I *162:A I *D sky130_fd_sc_hd__buf_1
*CAP
1 in[6] 0.000301577
2 *162:A 0.000301577
3 *162:A *10:11 0
4 *8:19 *162:A 0
*RES
1 in[6] *162:A 49.8062 
*END

*D_NET *10 0.00130197
*CONN
*P in[7] I
*I *163:A I *D sky130_fd_sc_hd__buf_1
*CAP
1 in[7] 0.000650983
2 *163:A 0
3 *10:11 0.000650983
4 *162:A *10:11 0
*RES
1 in[7] *10:11 32.0837 
2 *10:11 *163:A 23 
*END

*D_NET *11 0.00123536
*CONN
*P out[0] O
*I *171:X O *D sky130_fd_sc_hd__buf_2
*CAP
1 out[0] 0.00029892
2 *171:X 0.000318757
3 *11:8 0.000617678
4 out[0] out[1] 0
*RES
1 *171:X *11:8 44.6596 
2 *11:8 out[0] 9.10133 
*END

*D_NET *12 0.00046494
*CONN
*P out[1] O
*I *164:X O *D sky130_fd_sc_hd__buf_2
*CAP
1 out[1] 0.00023247
2 *164:X 0.00023247
3 out[1] out[2] 0
4 out[0] out[1] 0
*RES
1 *164:X out[1] 47.0789 
*END

*D_NET *13 0.000467104
*CONN
*P out[2] O
*I *165:X O *D sky130_fd_sc_hd__buf_2
*CAP
1 out[2] 0.000229242
2 *165:X 0.000229242
3 out[2] out[3] 0
4 out[2] *139:A 8.62073e-06
5 out[1] out[2] 0
*RES
1 *165:X out[2] 47.0789 
*END

*D_NET *14 0.000645346
*CONN
*P out[3] O
*I *166:X O *D sky130_fd_sc_hd__buf_2
*CAP
1 out[3] 0.000289936
2 *166:X 0.000289936
3 out[3] out[4] 0
4 out[3] *31:10 6.54744e-05
5 out[2] out[3] 0
*RES
1 *166:X out[3] 48.4875 
*END

*D_NET *15 0.000562877
*CONN
*P out[4] O
*I *167:X O *D sky130_fd_sc_hd__buf_2
*CAP
1 out[4] 0.000281438
2 *167:X 0.000281438
3 out[4] out[5] 0
4 out[4] *32:14 0
5 out[3] out[4] 0
*RES
1 *167:X out[4] 47.7832 
*END

*D_NET *16 0.000647066
*CONN
*P out[5] O
*I *168:X O *D sky130_fd_sc_hd__buf_2
*CAP
1 out[5] 0.000290796
2 *168:X 0.000290796
3 out[5] out[6] 0
4 out[5] *33:12 6.54744e-05
5 out[4] out[5] 0
*RES
1 *168:X out[5] 48.4875 
*END

*D_NET *17 0.000832648
*CONN
*P out[6] O
*I *169:X O *D sky130_fd_sc_hd__buf_2
*CAP
1 out[6] 0.000416324
2 *169:X 0.000416324
3 out[6] out[7] 0
4 out[5] out[6] 0
*RES
1 *169:X out[6] 47.5941 
*END

*D_NET *18 0.00110166
*CONN
*P out[7] O
*I *170:X O *D sky130_fd_sc_hd__clkbuf_4
*CAP
1 out[7] 0.000175108
2 *170:X 0.000375724
3 *18:8 0.000550832
4 out[6] out[7] 0
*RES
1 *170:X *18:8 45.7161 
2 *18:8 out[7] 8.672 
*END

*D_NET *19 0.00663136
*CONN
*I *140:B I *D sky130_fd_sc_hd__nor2_1
*I *154:B1_N I *D sky130_fd_sc_hd__a21boi_1
*I *145:D I *D sky130_fd_sc_hd__or4_1
*I *141:B I *D sky130_fd_sc_hd__and2_1
*I *144:A3 I *D sky130_fd_sc_hd__o31a_1
*I *139:X O *D sky130_fd_sc_hd__or4_2
*CAP
1 *140:B 0
2 *154:B1_N 7.72119e-05
3 *145:D 0.000422619
4 *141:B 7.93075e-05
5 *144:A3 0.000127966
6 *139:X 0.000357003
7 *19:35 0.00059714
8 *19:31 0.000454978
9 *19:25 0.000405873
10 *19:14 0.000384406
11 *19:10 0.000490122
12 *141:B *35:8 8.16356e-05
13 *141:B *42:12 8.16356e-05
14 *144:A3 *144:A1 0.000183733
15 *144:A3 *22:8 5.41288e-05
16 *145:D *145:A 9.41704e-05
17 *145:D *145:C 2.64616e-05
18 *145:D *148:B 6.53382e-05
19 *145:D *23:8 2.02872e-05
20 *154:B1_N *154:A1 4.96717e-05
21 *154:B1_N *31:10 1.76557e-05
22 *19:10 *139:A 0.000399824
23 *19:10 *144:A1 9.48381e-06
24 *19:10 *30:14 0
25 *19:10 *36:14 6.17437e-06
26 *19:10 *43:12 3.83778e-05
27 *19:14 *144:A1 9.67842e-05
28 *19:14 *22:8 2.02872e-05
29 *19:25 *144:A1 2.60152e-05
30 *19:25 *22:12 0.000166513
31 *19:25 *30:14 0
32 *19:31 *154:A1 2.93747e-05
33 *19:31 *154:A2 9.41704e-05
34 *19:31 *21:14 0.000647885
35 *19:31 *22:12 0.000647894
36 *19:31 *39:38 4.9662e-05
37 *19:35 *22:12 4.5628e-05
38 *19:35 *32:14 0.000225265
39 *19:35 *35:8 1.22906e-05
40 *19:35 *39:38 3.0647e-05
41 *19:35 *42:12 1.37349e-05
*RES
1 *139:X *19:10 45.1257 
2 *19:10 *19:14 17.5271 
3 *19:14 *144:A3 26.0036 
4 *19:14 *19:25 17.9621 
5 *19:25 *19:31 25.6471 
6 *19:31 *19:35 18.3143 
7 *19:35 *141:B 40.2579 
8 *19:35 *145:D 43.8621 
9 *19:31 *154:B1_N 24.5743 
10 *19:25 *140:B 38 
*END

*D_NET *20 0.00610201
*CONN
*I *142:A I *D sky130_fd_sc_hd__nor2_1
*I *143:B I *D sky130_fd_sc_hd__xnor2_1
*I *140:Y O *D sky130_fd_sc_hd__nor2_1
*CAP
1 *142:A 1.17906e-05
2 *143:B 0
3 *140:Y 0.000262013
4 *20:14 0.000988004
5 *20:8 0.00126181
6 *142:A *26:14 5.55911e-05
7 *142:A *40:36 6.48142e-05
8 *20:8 *32:8 0.000262858
9 *20:8 *38:8 1.21972e-05
10 *20:14 *152:A 5.66129e-05
11 *20:14 *154:A2 6.21446e-05
12 *20:14 *169:A 0
13 *20:14 *25:12 2.24608e-05
14 *20:14 *26:14 0.00122468
15 *20:14 *33:6 0.000185207
16 *20:14 *40:14 0.000587979
17 *20:14 *40:25 0.000222113
18 *20:14 *40:36 0.000716665
19 *20:14 *41:10 0.000105072
*RES
1 *140:Y *20:8 41.48 
2 *20:8 *20:14 45.74 
3 *20:14 *143:B 23 
4 *20:8 *142:A 38.8493 
*END

*D_NET *21 0.00278853
*CONN
*I *142:B I *D sky130_fd_sc_hd__nor2_1
*I *141:X O *D sky130_fd_sc_hd__and2_1
*CAP
1 *142:B 0
2 *141:X 7.28698e-05
3 *21:14 0.000456987
4 *21:8 0.000529857
5 *21:8 *141:A 7.59794e-05
6 *21:14 *154:A2 2.72055e-05
7 *21:14 *22:12 0.000193335
8 *21:14 *23:14 0.000246757
9 *21:14 *30:14 0.00018611
10 *21:14 *32:8 0.000140259
11 *21:14 *38:8 0.000140259
12 *21:14 *39:10 6.32688e-05
13 *21:14 *40:36 0
14 *21:14 *42:12 7.76364e-06
15 *19:31 *21:14 0.000647885
*RES
1 *141:X *21:8 39.5743 
2 *21:8 *21:14 30.805 
3 *21:14 *142:B 23 
*END

*D_NET *22 0.00323909
*CONN
*I *146:A_N I *D sky130_fd_sc_hd__and2b_1
*I *144:X O *D sky130_fd_sc_hd__o31a_1
*CAP
1 *146:A_N 0
2 *144:X 0.000115401
3 *22:12 0.000415851
4 *22:8 0.000531252
5 *22:12 *144:A1 0.000155068
6 *22:12 *39:38 0.000700333
7 *22:12 *42:12 0.000193398
8 *144:A3 *22:8 5.41288e-05
9 *19:14 *22:8 2.02872e-05
10 *19:25 *22:12 0.000166513
11 *19:31 *22:12 0.000647894
12 *19:35 *22:12 4.5628e-05
13 *21:14 *22:12 0.000193335
*RES
1 *144:X *22:8 39.5743 
2 *22:8 *22:12 30.9914 
3 *22:12 *146:A_N 23 
*END

*D_NET *23 0.00109958
*CONN
*I *148:B I *D sky130_fd_sc_hd__xor2_1
*I *146:B I *D sky130_fd_sc_hd__and2b_1
*I *145:X O *D sky130_fd_sc_hd__or4_1
*CAP
1 *148:B 8.8621e-05
2 *146:B 0
3 *145:X 6.49074e-05
4 *23:14 0.000103415
5 *23:8 0.000256944
6 *23:8 *145:A 1.24376e-05
7 *23:14 *141:A 0.000164291
8 *23:14 *154:A2 4.18032e-05
9 *23:14 *39:10 3.47781e-05
10 *23:14 *42:12 0
11 *145:D *148:B 6.53382e-05
12 *145:D *23:8 2.02872e-05
13 *21:14 *23:14 0.000246757
*RES
1 *145:X *23:8 24.1186 
2 *23:8 *23:14 33.6664 
3 *23:14 *146:B 23 
4 *23:8 *148:B 24.5743 
*END

*D_NET *24 0.00254014
*CONN
*I *147:A I *D sky130_fd_sc_hd__clkbuf_1
*I *146:X O *D sky130_fd_sc_hd__and2b_1
*CAP
1 *147:A 0
2 *146:X 0.0005279
3 *24:14 0.0005279
4 *24:14 *150:A 0.000101764
5 *24:14 *25:12 0.000521102
6 *24:14 *28:39 2.4754e-05
7 *24:14 *36:41 0.00042956
8 *24:14 *40:6 9.65263e-05
9 *24:14 *40:25 0.00013684
10 *8:19 *24:14 0.000173793
*RES
1 *146:X *24:14 39.4264 
2 *24:14 *147:A 23 
*END

*D_NET *25 0.00342292
*CONN
*I *154:A2 I *D sky130_fd_sc_hd__a21boi_1
*I *152:A I *D sky130_fd_sc_hd__and2_1
*I *150:X O *D sky130_fd_sc_hd__or3_1
*CAP
1 *154:A2 0.000367836
2 *152:A 8.34042e-05
3 *150:X 0.000458689
4 *25:12 0.000909929
5 *152:A *169:A 0
6 *152:A *42:12 0
7 *154:A2 *141:A 0.000166513
8 *154:A2 *30:8 6.17437e-06
9 *154:A2 *39:6 1.59094e-05
10 *154:A2 *39:10 0.000157299
11 *154:A2 *39:38 4.39725e-05
12 *154:A2 *40:25 0.000218952
13 *154:A2 *40:36 0.000168744
14 *154:A2 *42:12 0
15 *19:31 *154:A2 9.41704e-05
16 *20:14 *152:A 5.66129e-05
17 *20:14 *154:A2 6.21446e-05
18 *20:14 *25:12 2.24608e-05
19 *21:14 *154:A2 2.72055e-05
20 *23:14 *154:A2 4.18032e-05
21 *24:14 *25:12 0.000521102
*RES
1 *150:X *25:12 44.8046 
2 *25:12 *152:A 39.7296 
3 *25:12 *154:A2 48.0154 
*END

*D_NET *26 0.00583566
*CONN
*I *152:B I *D sky130_fd_sc_hd__and2_1
*I *151:Y O *D sky130_fd_sc_hd__o21ai_1
*CAP
1 *152:B 0
2 *151:Y 0.000881525
3 *26:14 0.000493356
4 *26:6 0.00137488
5 *26:6 *37:12 3.22879e-05
6 *26:6 *37:23 0.000210882
7 *26:6 *41:25 1.59094e-05
8 *26:14 *34:14 2.64616e-05
9 *26:14 *40:36 7.55491e-05
10 *26:14 *41:10 0.000450155
11 *26:14 *41:25 0.000994379
12 *142:A *26:14 5.55911e-05
13 *20:14 *26:14 0.00122468
*RES
1 *151:Y *26:6 35.0557 
2 *26:6 *26:14 49.7821 
3 *26:14 *152:B 23 
*END

*D_NET *27 0.00154232
*CONN
*I *153:A I *D sky130_fd_sc_hd__clkbuf_1
*I *152:X O *D sky130_fd_sc_hd__and2_1
*CAP
1 *153:A 0
2 *152:X 0.000600188
3 *27:10 0.000600188
4 *27:10 *34:14 0.000272377
5 *27:10 *37:23 0
6 *27:10 *40:14 6.95665e-05
7 *27:10 *41:10 0
8 *27:10 *41:25 0
*RES
1 *152:X *27:10 48.8957 
2 *27:10 *153:A 38 
*END

*D_NET *28 0.00746974
*CONN
*I *139:D I *D sky130_fd_sc_hd__or4_2
*I *155:A I *D sky130_fd_sc_hd__clkbuf_1
*I *151:A2 I *D sky130_fd_sc_hd__o21ai_1
*I *150:C I *D sky130_fd_sc_hd__or3_1
*I *149:B I *D sky130_fd_sc_hd__xor2_1
*I *156:X O *D sky130_fd_sc_hd__dlymetal6s2s_1
*CAP
1 *139:D 0.000474422
2 *155:A 0
3 *151:A2 0.000182116
4 *150:C 0
5 *149:B 0
6 *156:X 0.000177395
7 *28:39 0.000735832
8 *28:29 0.00105514
9 *28:27 0.000316452
10 *28:23 0.000725424
11 *28:12 9.28055e-05
12 *28:8 0.00019846
13 *139:D *29:10 4.08664e-05
14 *139:D *36:14 0.0011431
15 *139:D *36:25 9.41704e-05
16 *139:D *37:38 1.22822e-05
17 *151:A2 *37:12 5.50106e-05
18 *151:A2 *37:23 0.000320642
19 *28:8 *29:10 0
20 *28:8 *36:31 1.19692e-05
21 *28:12 *36:25 2.47127e-05
22 *28:12 *36:31 5.50106e-05
23 *28:12 *37:38 5.70006e-05
24 *28:23 *29:10 0.000100061
25 *28:23 *36:25 0.000197877
26 *28:23 *37:38 5.77126e-05
27 *28:27 *29:10 3.43144e-05
28 *28:27 *36:31 0
29 *28:27 *37:12 0
30 *28:27 *37:38 0
31 *28:29 *37:12 0
32 *28:39 *150:A 5.56356e-05
33 *28:39 *36:41 0
34 *28:39 *37:23 0.00117695
35 *28:39 *40:6 4.96303e-05
36 *4:15 *28:8 0
37 *24:14 *28:39 2.4754e-05
*RES
1 *156:X *28:8 40.9621 
2 *28:8 *28:12 16.0979 
3 *28:12 *149:B 23 
4 *28:12 *28:23 3.16929 
5 *28:23 *28:27 18.3143 
6 *28:27 *28:29 2.61 
7 *28:29 *28:39 33.9121 
8 *28:39 *150:C 23 
9 *28:29 *151:A2 42.4329 
10 *28:27 *155:A 38 
11 *28:23 *139:D 36.485 
*END

*D_NET *29 0.00256726
*CONN
*I *164:A I *D sky130_fd_sc_hd__buf_2
*I *149:X O *D sky130_fd_sc_hd__xor2_1
*CAP
1 *164:A 0
2 *149:X 0.000161089
3 *29:16 0.000915394
4 *29:10 0.00107648
5 *29:10 *36:8 0.000103949
6 *29:10 *36:14 5.94125e-05
7 *29:10 *37:38 7.56895e-05
8 *139:D *29:10 4.08664e-05
9 *28:8 *29:10 0
10 *28:23 *29:10 0.000100061
11 *28:27 *29:10 3.43144e-05
*RES
1 *149:X *29:10 42.1843 
2 *29:10 *29:16 29.935 
3 *29:16 *164:A 23 
*END

*D_NET *30 0.00331216
*CONN
*I *165:A I *D sky130_fd_sc_hd__buf_2
*I *153:X O *D sky130_fd_sc_hd__clkbuf_1
*CAP
1 *165:A 0
2 *153:X 0.000337263
3 *30:14 0.000767818
4 *30:8 0.00110508
5 *30:8 *39:6 3.15347e-05
6 *30:14 *40:36 0.000752763
7 *30:14 *41:25 0
8 *30:14 *43:6 0.000125416
9 *154:A2 *30:8 6.17437e-06
10 *19:10 *30:14 0
11 *19:25 *30:14 0
12 *21:14 *30:14 0.00018611
*RES
1 *153:X *30:8 41.9564 
2 *30:8 *30:14 33.56 
3 *30:14 *165:A 23 
*END

*D_NET *31 0.00148136
*CONN
*I *166:A I *D sky130_fd_sc_hd__buf_2
*I *154:Y O *D sky130_fd_sc_hd__a21boi_1
*CAP
1 *166:A 0
2 *154:Y 0.000364191
3 *31:10 0.000364191
4 *31:10 *154:A1 0.000669853
5 out[3] *31:10 6.54744e-05
6 *154:B1_N *31:10 1.76557e-05
*RES
1 *154:Y *31:10 47.1143 
2 *31:10 *166:A 38 
*END

*D_NET *32 0.00281471
*CONN
*I *167:A I *D sky130_fd_sc_hd__buf_2
*I *142:Y O *D sky130_fd_sc_hd__nor2_1
*CAP
1 *167:A 0
2 *142:Y 0.000207041
3 *32:14 0.000404163
4 *32:8 0.000611204
5 *32:8 *38:8 0.000150954
6 *32:14 *154:A1 0.000568589
7 *32:14 *35:8 3.70187e-05
8 *32:14 *39:38 0.000207364
9 out[4] *32:14 0
10 *19:35 *32:14 0.000225265
11 *20:8 *32:8 0.000262858
12 *21:14 *32:8 0.000140259
*RES
1 *142:Y *32:8 42.9093 
2 *32:8 *32:14 27.1593 
3 *32:14 *167:A 23 
*END

*D_NET *33 0.00353834
*CONN
*I *168:A I *D sky130_fd_sc_hd__buf_2
*I *143:Y O *D sky130_fd_sc_hd__xnor2_1
*CAP
1 *168:A 0
2 *143:Y 0.00116282
3 *33:12 0.000162306
4 *33:6 0.00132513
5 *33:6 *40:14 0.000251676
6 *33:12 *35:8 0.000385726
7 out[5] *33:12 6.54744e-05
8 *20:14 *33:6 0.000185207
*RES
1 *143:Y *33:6 39.3436 
2 *33:6 *33:12 35.075 
3 *33:12 *168:A 23 
*END

*D_NET *34 0.0032523
*CONN
*I *169:A I *D sky130_fd_sc_hd__buf_2
*I *147:X O *D sky130_fd_sc_hd__clkbuf_1
*CAP
1 *169:A 0.0002743
2 *147:X 9.12898e-05
3 *34:14 0.00118138
4 *34:8 0.000998366
5 *169:A *35:8 0
6 *169:A *41:10 0
7 *169:A *42:12 0.000408129
8 *152:A *169:A 0
9 *8:19 *34:8 0
10 *20:14 *169:A 0
11 *26:14 *34:14 2.64616e-05
12 *27:10 *34:14 0.000272377
*RES
1 *147:X *34:8 39.5536 
2 *34:8 *34:14 45.8671 
3 *34:14 *169:A 44.4836 
*END

*D_NET *35 0.00158106
*CONN
*I *170:A I *D sky130_fd_sc_hd__clkbuf_4
*I *148:X O *D sky130_fd_sc_hd__xor2_1
*CAP
1 *170:A 0
2 *148:X 0.000532194
3 *35:8 0.000532194
4 *35:8 *42:12 0
5 *141:B *35:8 8.16356e-05
6 *169:A *35:8 0
7 *19:35 *35:8 1.22906e-05
8 *32:14 *35:8 3.70187e-05
9 *33:12 *35:8 0.000385726
*RES
1 *148:X *35:8 49.7657 
2 *35:8 *170:A 38 
*END

*D_NET *36 0.00768731
*CONN
*I *149:A I *D sky130_fd_sc_hd__xor2_1
*I *151:A1 I *D sky130_fd_sc_hd__o21ai_1
*I *150:B I *D sky130_fd_sc_hd__or3_1
*I *139:C I *D sky130_fd_sc_hd__or4_2
*I *157:X O *D sky130_fd_sc_hd__buf_1
*CAP
1 *149:A 0
2 *151:A1 0
3 *150:B 0
4 *139:C 0
5 *157:X 6.62918e-05
6 *36:41 0.00136593
7 *36:31 0.00172709
8 *36:25 0.000579574
9 *36:14 0.000267028
10 *36:8 0.000551732
11 *36:14 *37:38 0.000646428
12 *36:31 *37:12 0.000143137
13 *36:31 *37:38 5.13716e-05
14 *36:41 *37:12 2.08324e-05
15 *139:D *36:14 0.0011431
16 *139:D *36:25 9.41704e-05
17 *6:17 *36:41 0
18 *7:17 *36:41 0
19 *8:19 *36:41 0.00014196
20 *19:10 *36:14 6.17437e-06
21 *24:14 *36:41 0.00042956
22 *28:8 *36:31 1.19692e-05
23 *28:12 *36:25 2.47127e-05
24 *28:12 *36:31 5.50106e-05
25 *28:23 *36:25 0.000197877
26 *28:27 *36:31 0
27 *28:39 *36:41 0
28 *29:10 *36:8 0.000103949
29 *29:10 *36:14 5.94125e-05
*RES
1 *157:X *36:8 39.5536 
2 *36:8 *36:14 28.8579 
3 *36:14 *139:C 23 
4 *36:8 *36:25 19.4536 
5 *36:25 *36:31 22.83 
6 *36:31 *36:41 39.7329 
7 *36:41 *150:B 23 
8 *36:31 *151:A1 38 
9 *36:25 *149:A 23 
*END

*D_NET *37 0.00725394
*CONN
*I *139:B I *D sky130_fd_sc_hd__or4_2
*I *150:A I *D sky130_fd_sc_hd__or3_1
*I *151:B1 I *D sky130_fd_sc_hd__o21ai_1
*I *158:X O *D sky130_fd_sc_hd__buf_1
*CAP
1 *139:B 0
2 *150:A 2.01281e-05
3 *151:B1 0
4 *158:X 0
5 *37:38 0.00114129
6 *37:23 0.000799722
7 *37:12 0.000948786
8 *37:6 0.00131048
9 *150:A *40:6 1.59071e-05
10 *37:23 *40:14 0
11 *139:D *37:38 1.22822e-05
12 *151:A2 *37:12 5.50106e-05
13 *151:A2 *37:23 0.000320642
14 *24:14 *150:A 0.000101764
15 *26:6 *37:12 3.22879e-05
16 *26:6 *37:23 0.000210882
17 *27:10 *37:23 0
18 *28:12 *37:38 5.70006e-05
19 *28:23 *37:38 5.77126e-05
20 *28:27 *37:12 0
21 *28:27 *37:38 0
22 *28:29 *37:12 0
23 *28:39 *150:A 5.56356e-05
24 *28:39 *37:23 0.00117695
25 *29:10 *37:38 7.56895e-05
26 *36:14 *37:38 0.000646428
27 *36:31 *37:12 0.000143137
28 *36:31 *37:38 5.13716e-05
29 *36:41 *37:12 2.08324e-05
*RES
1 *158:X *37:6 38 
2 *37:6 *37:12 19.64 
3 *37:12 *151:B1 23 
4 *37:12 *37:23 36.4807 
5 *37:23 *150:A 39.0979 
6 *37:6 *37:38 33.4979 
7 *37:38 *139:B 23 
*END

*D_NET *38 0.00567711
*CONN
*I *139:A I *D sky130_fd_sc_hd__or4_2
*I *154:A1 I *D sky130_fd_sc_hd__a21boi_1
*I *159:X O *D sky130_fd_sc_hd__buf_1
*CAP
1 *139:A 0.000411267
2 *154:A1 0.000267927
3 *159:X 0.00113285
4 *38:10 0.000679194
5 *38:8 0.00113285
6 *139:A *144:A1 0
7 *139:A *43:12 2.36844e-05
8 *154:A1 *144:A1 0
9 *154:A1 *39:38 0
10 out[2] *139:A 8.62073e-06
11 *154:B1_N *154:A1 4.96717e-05
12 *19:10 *139:A 0.000399824
13 *19:31 *154:A1 2.93747e-05
14 *20:8 *38:8 1.21972e-05
15 *21:14 *38:8 0.000140259
16 *31:10 *154:A1 0.000669853
17 *32:8 *38:8 0.000150954
18 *32:14 *154:A1 0.000568589
*RES
1 *159:X *38:8 42.4507 
2 *38:8 *38:10 15 
3 *38:10 *154:A1 47.8186 
4 *38:10 *139:A 47.2179 
*END

*D_NET *39 0.00706079
*CONN
*I *144:A1 I *D sky130_fd_sc_hd__o31a_1
*I *140:A I *D sky130_fd_sc_hd__nor2_1
*I *145:A I *D sky130_fd_sc_hd__or4_1
*I *141:A I *D sky130_fd_sc_hd__and2_1
*I *160:X O *D sky130_fd_sc_hd__buf_1
*CAP
1 *144:A1 0.000273258
2 *140:A 0
3 *145:A 6.17153e-05
4 *141:A 0.000340548
5 *160:X 0.00115822
6 *39:38 0.000712615
7 *39:10 0.000499936
8 *39:6 0.00169525
9 *139:A *144:A1 0
10 *144:A3 *144:A1 0.000183733
11 *145:D *145:A 9.41704e-05
12 *154:A1 *144:A1 0
13 *154:A1 *39:38 0
14 *154:A2 *141:A 0.000166513
15 *154:A2 *39:6 1.59094e-05
16 *154:A2 *39:10 0.000157299
17 *154:A2 *39:38 4.39725e-05
18 *19:10 *144:A1 9.48381e-06
19 *19:14 *144:A1 9.67842e-05
20 *19:25 *144:A1 2.60152e-05
21 *19:31 *39:38 4.9662e-05
22 *19:35 *39:38 3.0647e-05
23 *21:8 *141:A 7.59794e-05
24 *21:14 *39:10 6.32688e-05
25 *22:12 *144:A1 0.000155068
26 *22:12 *39:38 0.000700333
27 *23:8 *145:A 1.24376e-05
28 *23:14 *141:A 0.000164291
29 *23:14 *39:10 3.47781e-05
30 *30:8 *39:6 3.15347e-05
31 *32:14 *39:38 0.000207364
*RES
1 *160:X *39:6 36.9614 
2 *39:6 *39:10 17.2579 
3 *39:10 *141:A 44.7114 
4 *39:10 *145:A 39.0979 
5 *39:6 *39:38 26.8279 
6 *39:38 *140:A 38 
7 *39:38 *144:A1 44.3179 
*END

*D_NET *40 0.00691707
*CONN
*I *144:A2 I *D sky130_fd_sc_hd__o31a_1
*I *145:B I *D sky130_fd_sc_hd__or4_1
*I *143:A I *D sky130_fd_sc_hd__xnor2_1
*I *161:X O *D sky130_fd_sc_hd__buf_1
*CAP
1 *144:A2 0
2 *145:B 0
3 *143:A 0
4 *161:X 0.000415864
5 *40:36 0.000305272
6 *40:25 0.000811314
7 *40:14 0.000512886
8 *40:6 0.00143479
9 *40:14 *41:10 0
10 *40:36 *41:25 9.21347e-06
11 *142:A *40:36 6.48142e-05
12 *150:A *40:6 1.59071e-05
13 *154:A2 *40:25 0.000218952
14 *154:A2 *40:36 0.000168744
15 *20:14 *40:14 0.000587979
16 *20:14 *40:25 0.000222113
17 *20:14 *40:36 0.000716665
18 *21:14 *40:36 0
19 *24:14 *40:6 9.65263e-05
20 *24:14 *40:25 0.00013684
21 *26:14 *40:36 7.55491e-05
22 *27:10 *40:14 6.95665e-05
23 *28:39 *40:6 4.96303e-05
24 *30:14 *40:36 0.000752763
25 *33:6 *40:14 0.000251676
26 *37:23 *40:14 0
*RES
1 *161:X *40:6 28.8621 
2 *40:6 *40:14 43.2986 
3 *40:14 *143:A 23 
4 *40:6 *40:25 23.8243 
5 *40:25 *145:B 38 
6 *40:25 *40:36 27.8221 
7 *40:36 *144:A2 23 
*END

*D_NET *41 0.00569653
*CONN
*I *144:B1 I *D sky130_fd_sc_hd__o31a_1
*I *145:C I *D sky130_fd_sc_hd__or4_1
*I *162:X O *D sky130_fd_sc_hd__buf_1
*CAP
1 *144:B1 0
2 *145:C 4.24639e-05
3 *162:X 0.000426815
4 *41:25 0.000587835
5 *41:10 0.00115398
6 *41:8 0.000950499
7 *41:8 *42:6 0.000933741
8 *145:D *145:C 2.64616e-05
9 *169:A *41:10 0
10 *20:14 *41:10 0.000105072
11 *26:6 *41:25 1.59094e-05
12 *26:14 *41:10 0.000450155
13 *26:14 *41:25 0.000994379
14 *27:10 *41:10 0
15 *27:10 *41:25 0
16 *30:14 *41:25 0
17 *40:14 *41:10 0
18 *40:36 *41:25 9.21347e-06
*RES
1 *162:X *41:8 49.5793 
2 *41:8 *41:10 11.0614 
3 *41:10 *145:C 38.6214 
4 *41:10 *41:25 29.8521 
5 *41:25 *144:B1 23 
*END

*D_NET *42 0.00439982
*CONN
*I *148:A I *D sky130_fd_sc_hd__xor2_1
*I *163:X O *D sky130_fd_sc_hd__buf_1
*CAP
1 *148:A 0
2 *163:X 0.000961299
3 *42:12 0.000419408
4 *42:6 0.00138071
5 *141:B *42:12 8.16356e-05
6 *152:A *42:12 0
7 *154:A2 *42:12 0
8 *169:A *42:12 0.000408129
9 *19:35 *42:12 1.37349e-05
10 *21:14 *42:12 7.76364e-06
11 *22:12 *42:12 0.000193398
12 *23:14 *42:12 0
13 *35:8 *42:12 0
14 *41:8 *42:6 0.000933741
*RES
1 *163:X *42:6 37.9143 
2 *42:6 *42:12 40.3571 
3 *42:12 *148:A 23 
*END

*D_NET *43 0.0025252
*CONN
*I *171:A I *D sky130_fd_sc_hd__buf_2
*I *155:X O *D sky130_fd_sc_hd__clkbuf_1
*CAP
1 *171:A 0
2 *155:X 0.000898208
3 *43:12 0.000270654
4 *43:6 0.00116886
5 *139:A *43:12 2.36844e-05
6 *19:10 *43:12 3.83778e-05
7 *30:14 *43:6 0.000125416
*RES
1 *155:X *43:6 35.0557 
2 *43:6 *43:12 34.7229 
3 *43:12 *171:A 23 
*END
