*SPEF "ieee 1481-1999"
*DESIGN "twos_complement"
*DATE "14:01:21 Saturday April 26, 2025"
*VENDOR "The OpenROAD Project"
*PROGRAM "OpenROAD"
*VERSION "b16bda7e82721d10566ff7e2b68f1ff0be9f9e38"
*DESIGN_FLOW "NAME_SCOPE LOCAL" "PIN_CAP NONE"
*DIVIDER /
*DELIMITER :
*BUS_DELIMITER []
*T_UNIT 1 NS
*C_UNIT 1 PF
*R_UNIT 1 OHM
*L_UNIT 1 HENRY

*NAME_MAP
*3 in[0]
*4 in[1]
*5 in[2]
*6 in[3]
*7 in[4]
*8 in[5]
*9 in[6]
*10 in[7]
*11 out[0]
*12 out[1]
*13 out[2]
*14 out[3]
*15 out[4]
*16 out[5]
*17 out[6]
*18 out[7]
*19 _00_
*20 _01_
*21 _02_
*22 _03_
*23 _04_
*24 _05_
*25 _06_
*26 _07_
*27 _08_
*28 net1
*29 net10
*30 net11
*31 net12
*32 net13
*33 net14
*34 net15
*35 net16
*36 net2
*37 net3
*38 net4
*39 net5
*40 net6
*41 net7
*42 net8
*43 net9
*44 FILLER_0_0_21
*45 FILLER_0_0_27
*46 FILLER_0_0_36
*47 FILLER_0_0_9
*48 FILLER_0_10_12
*49 FILLER_0_10_18
*50 FILLER_0_10_26
*51 FILLER_0_10_29
*52 FILLER_0_10_41
*53 FILLER_0_10_6
*54 FILLER_0_11_18
*55 FILLER_0_11_25
*56 FILLER_0_11_37
*57 FILLER_0_11_45
*58 FILLER_0_11_6
*59 FILLER_0_12_13
*60 FILLER_0_12_25
*61 FILLER_0_12_29
*62 FILLER_0_12_37
*63 FILLER_0_1_15
*64 FILLER_0_1_21
*65 FILLER_0_1_3
*66 FILLER_0_1_33
*67 FILLER_0_1_45
*68 FILLER_0_2_13
*69 FILLER_0_2_25
*70 FILLER_0_2_29
*71 FILLER_0_2_3
*72 FILLER_0_2_41
*73 FILLER_0_2_47
*74 FILLER_0_2_9
*75 FILLER_0_3_18
*76 FILLER_0_3_31
*77 FILLER_0_3_43
*78 FILLER_0_3_6
*79 FILLER_0_4_15
*80 FILLER_0_4_27
*81 FILLER_0_4_29
*82 FILLER_0_4_3
*83 FILLER_0_4_35
*84 FILLER_0_4_39
*85 FILLER_0_4_47
*86 FILLER_0_5_13
*87 FILLER_0_5_33
*88 FILLER_0_5_38
*89 FILLER_0_6_15
*90 FILLER_0_6_27
*91 FILLER_0_6_29
*92 FILLER_0_6_3
*93 FILLER_0_6_41
*94 FILLER_0_6_47
*95 FILLER_0_7_15
*96 FILLER_0_7_19
*97 FILLER_0_7_24
*98 FILLER_0_7_3
*99 FILLER_0_7_36
*100 FILLER_0_8_18
*101 FILLER_0_8_26
*102 FILLER_0_8_29
*103 FILLER_0_8_37
*104 FILLER_0_8_46
*105 FILLER_0_8_6
*106 FILLER_0_9_15
*107 FILLER_0_9_26
*108 FILLER_0_9_3
*109 FILLER_0_9_37
*110 FILLER_0_9_45
*111 PHY_EDGE_ROW_0_Left_13
*112 PHY_EDGE_ROW_0_Right_0
*113 PHY_EDGE_ROW_10_Left_23
*114 PHY_EDGE_ROW_10_Right_10
*115 PHY_EDGE_ROW_11_Left_24
*116 PHY_EDGE_ROW_11_Right_11
*117 PHY_EDGE_ROW_12_Left_25
*118 PHY_EDGE_ROW_12_Right_12
*119 PHY_EDGE_ROW_1_Left_14
*120 PHY_EDGE_ROW_1_Right_1
*121 PHY_EDGE_ROW_2_Left_15
*122 PHY_EDGE_ROW_2_Right_2
*123 PHY_EDGE_ROW_3_Left_16
*124 PHY_EDGE_ROW_3_Right_3
*125 PHY_EDGE_ROW_4_Left_17
*126 PHY_EDGE_ROW_4_Right_4
*127 PHY_EDGE_ROW_5_Left_18
*128 PHY_EDGE_ROW_5_Right_5
*129 PHY_EDGE_ROW_6_Left_19
*130 PHY_EDGE_ROW_6_Right_6
*131 PHY_EDGE_ROW_7_Left_20
*132 PHY_EDGE_ROW_7_Right_7
*133 PHY_EDGE_ROW_8_Left_21
*134 PHY_EDGE_ROW_8_Right_8
*135 PHY_EDGE_ROW_9_Left_22
*136 PHY_EDGE_ROW_9_Right_9
*137 TAP_TAPCELL_ROW_0_26
*138 TAP_TAPCELL_ROW_10_31
*139 TAP_TAPCELL_ROW_12_32
*140 TAP_TAPCELL_ROW_2_27
*141 TAP_TAPCELL_ROW_4_28
*142 TAP_TAPCELL_ROW_6_29
*143 TAP_TAPCELL_ROW_8_30
*144 _09_
*145 _10_
*146 _11_
*147 _12_
*148 _13_
*149 _14_
*150 _15_
*151 _16_
*152 _17_
*153 _18_
*154 _19_
*155 _20_
*156 _21_
*157 _22_
*158 _23_
*159 _24_
*160 _25_
*161 input1
*162 input2
*163 input3
*164 input4
*165 input5
*166 input6
*167 input7
*168 input8
*169 output10
*170 output11
*171 output12
*172 output13
*173 output14
*174 output15
*175 output16
*176 output9

*PORTS
in[0] I
in[1] I
in[2] I
in[3] I
in[4] I
in[5] I
in[6] I
in[7] I
out[0] O
out[1] O
out[2] O
out[3] O
out[4] O
out[5] O
out[6] O
out[7] O

*D_NET *3 0.000986291
*CONN
*P in[0] I
*I *161:A I *D sky130_fd_sc_hd__dlymetal6s2s_1
*CAP
1 in[0] 0.000493145
2 *161:A 0.000493145
3 *161:A *162:A 0
*RES
1 in[0] *161:A 9.94677 
*END

*D_NET *4 0.000708939
*CONN
*P in[1] I
*I *162:A I *D sky130_fd_sc_hd__buf_1
*CAP
1 in[1] 0.00035447
2 *162:A 0.00035447
3 *162:A *163:A 0
4 *161:A *162:A 0
*RES
1 in[1] *162:A 8.3643 
*END

*D_NET *5 0.000531065
*CONN
*P in[2] I
*I *163:A I *D sky130_fd_sc_hd__buf_1
*CAP
1 in[2] 0.000265532
2 *163:A 0.000265532
3 *163:A *164:A 0
4 *162:A *163:A 0
*RES
1 in[2] *163:A 6.8343 
*END

*D_NET *6 0.000645774
*CONN
*P in[3] I
*I *164:A I *D sky130_fd_sc_hd__clkbuf_1
*CAP
1 in[3] 0.000322887
2 *164:A 0.000322887
3 *164:A *165:A 0
4 *164:A *37:10 0
5 *163:A *164:A 0
*RES
1 in[3] *164:A 7.8543 
*END

*D_NET *7 0.0005615
*CONN
*P in[4] I
*I *165:A I *D sky130_fd_sc_hd__buf_1
*CAP
1 in[4] 0.00028075
2 *165:A 0.00028075
3 *165:A *166:A 0
4 *165:A *37:16 0
5 *164:A *165:A 0
*RES
1 in[4] *165:A 7.0893 
*END

*D_NET *8 0.000666425
*CONN
*P in[5] I
*I *166:A I *D sky130_fd_sc_hd__buf_1
*CAP
1 in[5] 0.000333212
2 *166:A 0.000333212
3 *166:A *167:A 0
4 *165:A *166:A 0
*RES
1 in[5] *166:A 8.1093 
*END

*D_NET *9 0.000523624
*CONN
*P in[6] I
*I *167:A I *D sky130_fd_sc_hd__clkbuf_1
*CAP
1 in[6] 0.000261812
2 *167:A 0.000261812
3 *167:A *168:A 0
4 *166:A *167:A 0
*RES
1 in[6] *167:A 6.8343 
*END

*D_NET *10 0.00115517
*CONN
*P in[7] I
*I *168:A I *D sky130_fd_sc_hd__buf_1
*CAP
1 in[7] 0.000577586
2 *168:A 0.000577586
3 *167:A *168:A 0
*RES
1 in[7] *168:A 10.6316 
*END

*D_NET *11 0.00109227
*CONN
*P out[0] O
*I *176:X O *D sky130_fd_sc_hd__buf_2
*CAP
1 out[0] 0.000546133
2 *176:X 0.000546133
3 out[0] out[1] 0
*RES
1 *176:X out[0] 9.66983 
*END

*D_NET *12 0.000411239
*CONN
*P out[1] O
*I *169:X O *D sky130_fd_sc_hd__buf_2
*CAP
1 out[1] 0.00020562
2 *169:X 0.00020562
3 out[1] out[2] 0
4 out[0] out[1] 0
*RES
1 *169:X out[1] 4.84677 
*END

*D_NET *13 0.000420865
*CONN
*P out[2] O
*I *170:X O *D sky130_fd_sc_hd__buf_2
*CAP
1 out[2] 0.00020015
2 *170:X 0.00020015
3 out[2] out[3] 0
4 out[2] *157:A 2.05641e-05
5 out[1] out[2] 0
*RES
1 *170:X out[2] 4.84677 
*END

*D_NET *14 0.000461071
*CONN
*P out[3] O
*I *171:X O *D sky130_fd_sc_hd__buf_2
*CAP
1 out[3] 0.000208474
2 *171:X 0.000208474
3 out[3] out[4] 0
4 out[3] *25:10 4.4123e-05
5 out[2] out[3] 0
*RES
1 *171:X out[3] 5.10177 
*END

*D_NET *15 0.000420865
*CONN
*P out[4] O
*I *172:X O *D sky130_fd_sc_hd__buf_2
*CAP
1 out[4] 0.00020015
2 *172:X 0.00020015
3 out[4] out[5] 0
4 out[4] *25:10 2.05641e-05
5 out[3] out[4] 0
*RES
1 *172:X out[4] 4.84677 
*END

*D_NET *16 0.000540837
*CONN
*P out[5] O
*I *173:X O *D sky130_fd_sc_hd__buf_2
*CAP
1 out[5] 0.000270419
2 *173:X 0.000270419
3 out[5] out[6] 0
4 out[5] *175:A 0
5 out[4] out[5] 0
*RES
1 *173:X out[5] 5.86677 
*END

*D_NET *17 0.000716532
*CONN
*P out[6] O
*I *174:X O *D sky130_fd_sc_hd__buf_2
*CAP
1 out[6] 0.000358266
2 *174:X 0.000358266
3 out[6] out[7] 0
4 out[5] out[6] 0
*RES
1 *174:X out[6] 5.19637 
*END

*D_NET *18 0.000971234
*CONN
*P out[7] O
*I *175:X O *D sky130_fd_sc_hd__clkbuf_4
*CAP
1 out[7] 0.000485617
2 *175:X 0.000485617
3 out[6] out[7] 0
*RES
1 *175:X out[7] 10.1435 
*END

*D_NET *19 0.00611564
*CONN
*I *150:D I *D sky130_fd_sc_hd__or4_1
*I *159:B1_N I *D sky130_fd_sc_hd__a21boi_1
*I *149:A3 I *D sky130_fd_sc_hd__o31a_1
*I *146:B I *D sky130_fd_sc_hd__and2_1
*I *145:B I *D sky130_fd_sc_hd__nor2_1
*I *144:X O *D sky130_fd_sc_hd__or4_2
*CAP
1 *150:D 3.00018e-05
2 *159:B1_N 0.000381465
3 *149:A3 0.00026998
4 *146:B 0
5 *145:B 0.000100835
6 *144:X 8.98371e-05
7 *19:36 0.000771018
8 *19:27 0.000449396
9 *19:10 0.00051629
10 *19:8 0.00020547
11 *145:B *145:A 8.35068e-05
12 *145:B *150:C 0.000176652
13 *145:B *39:16 0.000160658
14 *149:A3 *149:A1 2.15594e-05
15 *149:A3 *151:A_N 0.000497416
16 *149:A3 *173:A 2.97004e-06
17 *149:A3 *174:A 0
18 *149:A3 *175:A 0
19 *150:D *150:A 1.80524e-05
20 *150:D *150:C 4.03557e-05
21 *150:D *37:16 0
22 *150:D *39:16 3.96088e-05
23 *159:B1_N *151:A_N 0.000331362
24 *159:B1_N *153:B 0.000298597
25 *159:B1_N *158:A 0.000399126
26 *159:B1_N *159:A1 0.000271314
27 *159:B1_N *173:A 6.31891e-05
28 *19:8 *39:10 0.000120633
29 *19:10 *150:C 0.000296159
30 *19:10 *39:16 0.000315139
31 *19:27 *40:8 0.000116764
32 *19:36 *146:A 4.82863e-05
*RES
1 *144:X *19:8 4.74 
2 *19:8 *19:10 3.675 
3 *19:10 *145:B 6.54 
4 *19:10 *19:27 7.295 
5 *19:27 *146:B 1.6 
6 *19:27 *19:36 3.83 
7 *19:36 *149:A3 9.825 
8 *19:36 *159:B1_N 16.17 
9 *19:8 *150:D 4.47 
*END

*D_NET *20 0.00404286
*CONN
*I *147:A I *D sky130_fd_sc_hd__nor2_1
*I *148:B I *D sky130_fd_sc_hd__xnor2_1
*I *145:Y O *D sky130_fd_sc_hd__nor2_1
*CAP
1 *147:A 0.000459437
2 *148:B 0
3 *145:Y 0.000493323
4 *20:10 0.00095276
5 *147:A *148:A 3.25831e-05
6 *147:A *153:A 0.000153214
7 *147:A *157:B 0.00047128
8 *147:A *28:10 0.000371826
9 *147:A *28:14 0.000413153
10 *147:A *36:10 2.49909e-05
11 *20:10 *145:A 6.51658e-05
12 *20:10 *148:A 4.31106e-05
13 *20:10 *149:A2 0.000183738
14 *20:10 *39:16 0
15 *20:10 *39:29 0.00013856
16 *20:10 *40:21 0.000239723
*RES
1 *145:Y *20:10 12.27 
2 *20:10 *148:B 3.6 
3 *20:10 *147:A 16.65 
*END

*D_NET *21 0.00264083
*CONN
*I *147:B I *D sky130_fd_sc_hd__nor2_1
*I *146:X O *D sky130_fd_sc_hd__and2_1
*CAP
1 *147:B 0.000726948
2 *146:X 0.000726948
3 *147:B *151:A_N 0
4 *147:B *152:A 0.000295393
5 *147:B *153:A 8.26527e-05
6 *147:B *153:B 0
7 *147:B *155:B 8.42317e-05
8 *147:B *158:A 0
9 *147:B *172:A 5.05437e-05
10 *147:B *28:10 0
11 *147:B *28:25 0.000250609
12 *147:B *28:31 5.23362e-05
13 *147:B *36:10 9.7732e-05
14 *147:B *36:29 0.000235779
15 *147:B *36:31 3.76596e-05
*RES
1 *146:X *147:B 24.42 
*END

*D_NET *22 0.00218467
*CONN
*I *151:A_N I *D sky130_fd_sc_hd__and2b_1
*I *149:X O *D sky130_fd_sc_hd__o31a_1
*CAP
1 *151:A_N 0.000360227
2 *149:X 0.000360227
3 *151:A_N *146:A 0.000163019
4 *151:A_N *149:A1 0.000317494
5 *151:A_N *149:B1 0.000124007
6 *151:A_N *152:A 0
7 *151:A_N *153:B 3.09233e-05
8 *147:B *151:A_N 0
9 *149:A3 *151:A_N 0.000497416
10 *159:B1_N *151:A_N 0.000331362
*RES
1 *149:X *151:A_N 17.88 
*END

*D_NET *23 0.00195244
*CONN
*I *153:B I *D sky130_fd_sc_hd__xor2_1
*I *151:B I *D sky130_fd_sc_hd__and2b_1
*I *150:X O *D sky130_fd_sc_hd__or4_1
*CAP
1 *153:B 0.000451915
2 *151:B 0
3 *150:X 0.000186931
4 *23:6 0.000638846
5 *153:B *158:A 0
6 *153:B *28:31 5.05437e-05
7 *23:6 *144:C 6.9921e-05
8 *23:6 *144:D 7.68414e-06
9 *23:6 *150:B 0.000121811
10 *23:6 *28:31 9.52646e-05
11 *147:B *153:B 0
12 *151:A_N *153:B 3.09233e-05
13 *159:B1_N *153:B 0.000298597
*RES
1 *150:X *23:6 5.155 
2 *23:6 *151:B 1.6 
3 *23:6 *153:B 14.915 
*END

*D_NET *24 0.00158647
*CONN
*I *152:A I *D sky130_fd_sc_hd__clkbuf_1
*I *151:X O *D sky130_fd_sc_hd__and2b_1
*CAP
1 *152:A 0.00059062
2 *151:X 0.00059062
3 *152:A *146:A 0
4 *152:A *149:A1 0
5 *152:A *153:A 0
6 *152:A *174:A 0.000109836
7 *147:B *152:A 0.000295393
8 *151:A_N *152:A 0
*RES
1 *151:X *152:A 17.91 
*END

*D_NET *25 0.00388301
*CONN
*I *157:A I *D sky130_fd_sc_hd__and2_1
*I *159:A2 I *D sky130_fd_sc_hd__a21boi_1
*I *155:X O *D sky130_fd_sc_hd__or3_1
*CAP
1 *157:A 0.000712764
2 *159:A2 0
3 *155:X 0.000366008
4 *25:10 0.00107877
5 *157:A *157:B 0.000198339
6 *157:A *158:A 0.00068382
7 *157:A *169:A 0.000186099
8 *157:A *170:A 0.000233004
9 *157:A *175:A 5.30057e-05
10 *25:10 *171:A 6.55406e-05
11 *25:10 *175:A 0.000220404
12 out[2] *157:A 2.05641e-05
13 out[3] *25:10 4.4123e-05
14 out[4] *25:10 2.05641e-05
*RES
1 *155:X *25:10 11.55 
2 *25:10 *159:A2 3.6 
3 *25:10 *157:A 18.69 
*END

*D_NET *26 0.00128234
*CONN
*I *157:B I *D sky130_fd_sc_hd__and2_1
*I *156:Y O *D sky130_fd_sc_hd__o21ai_1
*CAP
1 *157:B 0.000306362
2 *156:Y 0.000306362
3 *147:A *157:B 0.00047128
4 *157:A *157:B 0.000198339
*RES
1 *156:Y *157:B 14.49 
*END

*D_NET *27 0.00348489
*CONN
*I *158:A I *D sky130_fd_sc_hd__clkbuf_1
*I *157:X O *D sky130_fd_sc_hd__and2_1
*CAP
1 *158:A 0.000896275
2 *157:X 0.000896275
3 *158:A *155:A 4.66108e-05
4 *158:A *170:A 0.000314521
5 *158:A *173:A 0.000248261
6 *147:B *158:A 0
7 *153:B *158:A 0
8 *157:A *158:A 0.00068382
9 *159:B1_N *158:A 0.000399126
*RES
1 *157:X *158:A 25.8 
*END

*D_NET *28 0.00720951
*CONN
*I *154:B I *D sky130_fd_sc_hd__xor2_1
*I *144:D I *D sky130_fd_sc_hd__or4_2
*I *155:C I *D sky130_fd_sc_hd__or3_1
*I *160:A I *D sky130_fd_sc_hd__clkbuf_1
*I *156:A2 I *D sky130_fd_sc_hd__o21ai_1
*I *161:X O *D sky130_fd_sc_hd__dlymetal6s2s_1
*CAP
1 *154:B 0
2 *144:D 0.000507739
3 *155:C 0.000203271
4 *160:A 0
5 *156:A2 0
6 *161:X 0.000611937
7 *28:31 0.000354715
8 *28:25 0.000834122
9 *28:14 0.000261136
10 *28:10 0.000698133
11 *144:D *144:C 0.000654195
12 *144:D *39:10 1.33293e-05
13 *155:C *155:A 0.000199833
14 *155:C *170:A 0.000141599
15 *155:C *173:A 0.000229447
16 *155:C *175:A 0
17 *155:C *176:A 5.83121e-06
18 *28:10 *153:A 3.25831e-05
19 *28:10 *154:A 2.05571e-05
20 *28:10 *36:10 0.000250082
21 *28:10 *36:29 1.86911e-05
22 *28:14 *153:A 0.000411493
23 *28:25 *156:A1 1.56428e-05
24 *28:25 *36:31 0.000242078
25 *28:31 *155:B 3.09164e-05
26 *28:31 *173:A 0.000201511
27 *28:31 *36:31 2.92496e-05
28 *147:A *28:10 0.000371826
29 *147:A *28:14 0.000413153
30 *147:B *28:10 0
31 *147:B *28:25 0.000250609
32 *147:B *28:31 5.23362e-05
33 *153:B *28:31 5.05437e-05
34 *23:6 *144:D 7.68414e-06
35 *23:6 *28:31 9.52646e-05
*RES
1 *161:X *28:10 15.45 
2 *28:10 *28:14 6.695 
3 *28:14 *156:A2 1.6 
4 *28:14 *28:25 6.05 
5 *28:25 *28:31 6.17 
6 *28:31 *160:A 1.6 
7 *28:31 *155:C 10.625 
8 *28:25 *144:D 10.62 
9 *28:10 *154:B 3.6 
*END

*D_NET *29 0.00209302
*CONN
*I *169:A I *D sky130_fd_sc_hd__buf_2
*I *154:X O *D sky130_fd_sc_hd__xor2_1
*CAP
1 *169:A 0.000684669
2 *154:X 0.000684669
3 *169:A *153:A 0.000160491
4 *169:A *172:A 0.00014499
5 *169:A *175:A 0.000232105
6 *169:A *176:A 0
7 *157:A *169:A 0.000186099
*RES
1 *154:X *169:A 20.34 
*END

*D_NET *30 0.00214442
*CONN
*I *170:A I *D sky130_fd_sc_hd__buf_2
*I *158:X O *D sky130_fd_sc_hd__clkbuf_1
*CAP
1 *170:A 0.000476243
2 *158:X 0.000476243
3 *170:A *172:A 1.94636e-05
4 *170:A *173:A 2.42236e-05
5 *170:A *175:A 0
6 *170:A *176:A 0.000459118
7 *155:C *170:A 0.000141599
8 *157:A *170:A 0.000233004
9 *158:A *170:A 0.000314521
*RES
1 *158:X *170:A 20.955 
*END

*D_NET *31 0.000317449
*CONN
*I *171:A I *D sky130_fd_sc_hd__buf_2
*I *159:Y O *D sky130_fd_sc_hd__a21boi_1
*CAP
1 *171:A 6.58609e-05
2 *159:Y 6.58609e-05
3 *171:A *175:A 0.000120186
4 *25:10 *171:A 6.55406e-05
*RES
1 *159:Y *171:A 9.03 
*END

*D_NET *32 0.00342075
*CONN
*I *172:A I *D sky130_fd_sc_hd__buf_2
*I *147:Y O *D sky130_fd_sc_hd__nor2_1
*CAP
1 *172:A 0.00078613
2 *147:Y 0.00078613
3 *172:A *175:A 0.000654265
4 *172:A *176:A 0.00097923
5 *147:B *172:A 5.05437e-05
6 *169:A *172:A 0.00014499
7 *170:A *172:A 1.94636e-05
*RES
1 *147:Y *172:A 26.145 
*END

*D_NET *33 0.00203854
*CONN
*I *173:A I *D sky130_fd_sc_hd__buf_2
*I *148:Y O *D sky130_fd_sc_hd__xnor2_1
*CAP
1 *173:A 0.000634469
2 *148:Y 0.000634469
3 *173:A *175:A 0
4 *149:A3 *173:A 2.97004e-06
5 *155:C *173:A 0.000229447
6 *158:A *173:A 0.000248261
7 *159:B1_N *173:A 6.31891e-05
8 *170:A *173:A 2.42236e-05
9 *28:31 *173:A 0.000201511
*RES
1 *148:Y *173:A 18.315 
*END

*D_NET *34 0.00144385
*CONN
*I *174:A I *D sky130_fd_sc_hd__buf_2
*I *152:X O *D sky130_fd_sc_hd__clkbuf_1
*CAP
1 *174:A 0.000667007
2 *152:X 0.000667007
3 *174:A *149:A1 0
4 *174:A *175:A 0
5 *149:A3 *174:A 0
6 *152:A *174:A 0.000109836
*RES
1 *152:X *174:A 15.15 
*END

*D_NET *35 0.00330838
*CONN
*I *175:A I *D sky130_fd_sc_hd__clkbuf_4
*I *153:X O *D sky130_fd_sc_hd__xor2_1
*CAP
1 *175:A 0.00101421
2 *153:X 0.00101421
3 out[5] *175:A 0
4 *149:A3 *175:A 0
5 *155:C *175:A 0
6 *157:A *175:A 5.30057e-05
7 *169:A *175:A 0.000232105
8 *170:A *175:A 0
9 *171:A *175:A 0.000120186
10 *172:A *175:A 0.000654265
11 *173:A *175:A 0
12 *174:A *175:A 0
13 *25:10 *175:A 0.000220404
*RES
1 *153:X *175:A 27.78 
*END

*D_NET *36 0.00671723
*CONN
*I *156:A1 I *D sky130_fd_sc_hd__o21ai_1
*I *144:C I *D sky130_fd_sc_hd__or4_2
*I *155:B I *D sky130_fd_sc_hd__or3_1
*I *154:A I *D sky130_fd_sc_hd__xor2_1
*I *162:X O *D sky130_fd_sc_hd__buf_1
*CAP
1 *156:A1 3.07736e-05
2 *144:C 0.000193888
3 *155:B 0.00042588
4 *154:A 0.000111197
5 *162:X 0.00055248
6 *36:31 0.000705928
7 *36:29 0.000269131
8 *36:10 0.000815874
9 *144:C *144:A 4.77757e-05
10 *144:C *150:A 4.77757e-05
11 *144:C *150:B 1.98144e-05
12 *144:C *150:C 4.41506e-05
13 *144:C *39:10 7.82467e-05
14 *154:A *153:A 1.08758e-05
15 *155:B *153:A 0.000185405
16 *155:B *155:A 0.000681489
17 *36:29 *153:A 0.000355136
18 *36:31 *153:A 0.000329681
19 *144:D *144:C 0.000654195
20 *147:A *36:10 2.49909e-05
21 *147:B *155:B 8.42317e-05
22 *147:B *36:10 9.7732e-05
23 *147:B *36:29 0.000235779
24 *147:B *36:31 3.76596e-05
25 *23:6 *144:C 6.9921e-05
26 *28:10 *154:A 2.05571e-05
27 *28:10 *36:10 0.000250082
28 *28:10 *36:29 1.86911e-05
29 *28:25 *156:A1 1.56428e-05
30 *28:25 *36:31 0.000242078
31 *28:31 *155:B 3.09164e-05
32 *28:31 *36:31 2.92496e-05
*RES
1 *162:X *36:10 12.9525 
2 *36:10 *154:A 5.3475 
3 *36:10 *36:29 5.2725 
4 *36:29 *36:31 3.93 
5 *36:31 *155:B 12.42 
6 *36:31 *144:C 10.185 
7 *36:29 *156:A1 4.05 
*END

*D_NET *37 0.00490004
*CONN
*I *156:B1 I *D sky130_fd_sc_hd__o21ai_1
*I *144:B I *D sky130_fd_sc_hd__or4_2
*I *155:A I *D sky130_fd_sc_hd__or3_1
*I *163:X O *D sky130_fd_sc_hd__buf_1
*CAP
1 *156:B1 0.00032749
2 *144:B 0
3 *155:A 0.000752142
4 *163:X 0.000385924
5 *37:16 0.00102119
6 *37:10 0.000982462
7 *37:10 *144:A 0.000163019
8 *37:16 *144:A 0.000339879
9 *37:16 *150:C 0
10 *150:D *37:16 0
11 *155:B *155:A 0.000681489
12 *155:C *155:A 0.000199833
13 *158:A *155:A 4.66108e-05
14 *164:A *37:10 0
15 *165:A *37:16 0
*RES
1 *163:X *37:10 10.11 
2 *37:10 *37:16 5.25 
3 *37:16 *155:A 17.16 
4 *37:16 *144:B 3.6 
5 *37:10 *156:B1 8.19 
*END

*D_NET *38 0.00345306
*CONN
*I *159:A1 I *D sky130_fd_sc_hd__a21boi_1
*I *144:A I *D sky130_fd_sc_hd__or4_2
*I *164:X O *D sky130_fd_sc_hd__clkbuf_1
*CAP
1 *159:A1 0.000928994
2 *144:A 0.000260606
3 *164:X 0.000112512
4 *38:8 0.00130211
5 *144:A *39:10 2.68526e-05
6 *144:C *144:A 4.77757e-05
7 *159:B1_N *159:A1 0.000271314
8 *37:10 *144:A 0.000163019
9 *37:16 *144:A 0.000339879
*RES
1 *164:X *38:8 3.1 
2 *38:8 *144:A 11.765 
3 *38:8 *159:A1 14.125 
*END

*D_NET *39 0.00434573
*CONN
*I *150:A I *D sky130_fd_sc_hd__or4_1
*I *146:A I *D sky130_fd_sc_hd__and2_1
*I *149:A1 I *D sky130_fd_sc_hd__o31a_1
*I *145:A I *D sky130_fd_sc_hd__nor2_1
*I *165:X O *D sky130_fd_sc_hd__buf_1
*CAP
1 *150:A 3.71063e-05
2 *146:A 9.84293e-05
3 *149:A1 0.000206587
4 *145:A 0.000110764
5 *165:X 0.000216629
6 *39:29 0.000648225
7 *39:16 0.00074168
8 *39:10 0.000541442
9 *149:A1 *153:A 0
10 *150:A *150:B 4.6368e-06
11 *39:10 *150:C 8.23457e-05
12 *39:16 *149:A2 0
13 *144:A *39:10 2.68526e-05
14 *144:C *150:A 4.77757e-05
15 *144:C *39:10 7.82467e-05
16 *144:D *39:10 1.33293e-05
17 *145:B *145:A 8.35068e-05
18 *145:B *39:16 0.000160658
19 *149:A3 *149:A1 2.15594e-05
20 *150:D *150:A 1.80524e-05
21 *150:D *39:16 3.96088e-05
22 *151:A_N *146:A 0.000163019
23 *151:A_N *149:A1 0.000317494
24 *152:A *146:A 0
25 *152:A *149:A1 0
26 *174:A *149:A1 0
27 *19:8 *39:10 0.000120633
28 *19:10 *39:16 0.000315139
29 *19:36 *146:A 4.82863e-05
30 *20:10 *145:A 6.51658e-05
31 *20:10 *39:16 0
32 *20:10 *39:29 0.00013856
*RES
1 *165:X *39:10 7.7325 
2 *39:10 *39:16 8.2925 
3 *39:16 *145:A 3.79 
4 *39:16 *39:29 7.625 
5 *39:29 *149:A1 8.04 
6 *39:29 *146:A 5.94 
7 *39:10 *150:A 4.5375 
*END

*D_NET *40 0.00433833
*CONN
*I *148:A I *D sky130_fd_sc_hd__xnor2_1
*I *150:B I *D sky130_fd_sc_hd__or4_1
*I *149:A2 I *D sky130_fd_sc_hd__o31a_1
*I *166:X O *D sky130_fd_sc_hd__buf_1
*CAP
1 *148:A 1.82307e-05
2 *150:B 0.000139113
3 *149:A2 0.000401136
4 *166:X 0.000539025
5 *40:21 0.000222935
6 *40:8 0.00100575
7 *148:A *153:A 7.47215e-05
8 *149:A2 *149:B1 0.000390466
9 *149:A2 *153:A 0.000536512
10 *40:21 *153:A 0.000248254
11 *144:C *150:B 1.98144e-05
12 *147:A *148:A 3.25831e-05
13 *150:A *150:B 4.6368e-06
14 *19:27 *40:8 0.000116764
15 *20:10 *148:A 4.31106e-05
16 *20:10 *149:A2 0.000183738
17 *20:10 *40:21 0.000239723
18 *23:6 *150:B 0.000121811
19 *39:16 *149:A2 0
*RES
1 *166:X *40:8 9.57 
2 *40:8 *149:A2 13.89 
3 *40:8 *40:21 2.91 
4 *40:21 *150:B 5.43 
5 *40:21 *148:A 4.47 
*END

*D_NET *41 0.00383235
*CONN
*I *149:B1 I *D sky130_fd_sc_hd__o31a_1
*I *150:C I *D sky130_fd_sc_hd__or4_1
*I *167:X O *D sky130_fd_sc_hd__clkbuf_1
*CAP
1 *149:B1 0.000341463
2 *150:C 0.000556827
3 *167:X 0.000148253
4 *41:6 0.00104654
5 *149:B1 *153:A 0.000387301
6 *41:6 *153:A 0.000197822
7 *144:C *150:C 4.41506e-05
8 *145:B *150:C 0.000176652
9 *149:A2 *149:B1 0.000390466
10 *150:D *150:C 4.03557e-05
11 *151:A_N *149:B1 0.000124007
12 *19:10 *150:C 0.000296159
13 *37:16 *150:C 0
14 *39:10 *150:C 8.23457e-05
*RES
1 *167:X *41:6 4.465 
2 *41:6 *150:C 16.19 
3 *41:6 *149:B1 9.565 
*END

*D_NET *42 0.00531164
*CONN
*I *153:A I *D sky130_fd_sc_hd__xor2_1
*I *168:X O *D sky130_fd_sc_hd__buf_1
*CAP
1 *153:A 0.00107275
2 *168:X 0.00107275
3 *147:A *153:A 0.000153214
4 *147:B *153:A 8.26527e-05
5 *148:A *153:A 7.47215e-05
6 *149:A1 *153:A 0
7 *149:A2 *153:A 0.000536512
8 *149:B1 *153:A 0.000387301
9 *152:A *153:A 0
10 *154:A *153:A 1.08758e-05
11 *155:B *153:A 0.000185405
12 *169:A *153:A 0.000160491
13 *28:10 *153:A 3.25831e-05
14 *28:14 *153:A 0.000411493
15 *36:29 *153:A 0.000355136
16 *36:31 *153:A 0.000329681
17 *40:21 *153:A 0.000248254
18 *41:6 *153:A 0.000197822
*RES
1 *168:X *153:A 33.645 
*END

*D_NET *43 0.00255764
*CONN
*I *176:A I *D sky130_fd_sc_hd__buf_2
*I *160:X O *D sky130_fd_sc_hd__clkbuf_1
*CAP
1 *176:A 0.000556732
2 *160:X 0.000556732
3 *155:C *176:A 5.83121e-06
4 *169:A *176:A 0
5 *170:A *176:A 0.000459118
6 *172:A *176:A 0.00097923
*RES
1 *160:X *176:A 21.96 
*END
